Accel-Sim [build accelsim-commit-9be0e3c_modified_0.0_26-05-03-16-34-52]

        *** GPGPU-Sim Simulator Version 4.2.0  [build gpgpu-sim_git-commit-6c3cf4ff_modified_4.0] ***


GPGPU-Sim: Configuration options:

-save_embedded_ptx                      0 # saves ptx files embedded in binary as <n>.ptx
-keep                                   0 # keep intermediate files created by GPGPU-Sim when interfacing with external programs
-gpgpu_ptx_save_converted_ptxplus                    0 # Saved converted ptxplus to a file
-gpgpu_occupancy_sm_number                   86 # The SM number to pass to ptxas when getting register usage for computing GPU occupancy. This parameter is required in the config.
-ptx_opcode_latency_int           4,4,4,4,21 # Opcode latencies for integers <ADD,MAX,MUL,MAD,DIV,SHFL>Default 1,1,19,25,145,32
-ptx_opcode_latency_fp           4,4,4,4,39 # Opcode latencies for single precision floating points <ADD,MAX,MUL,MAD,DIV>Default 1,1,1,1,30
-ptx_opcode_latency_dp      64,64,64,64,330 # Opcode latencies for double precision floating points <ADD,MAX,MUL,MAD,DIV>Default 8,8,8,8,335
-ptx_opcode_latency_sfu                   21 # Opcode latencies for SFU instructionsDefault 8
-ptx_opcode_latency_tesnor                   64 # Opcode latencies for Tensor instructionsDefault 64
-ptx_opcode_initiation_int            2,2,2,2,2 # Opcode initiation intervals for integers <ADD,MAX,MUL,MAD,DIV,SHFL>Default 1,1,4,4,32,4
-ptx_opcode_initiation_fp            1,1,1,1,2 # Opcode initiation intervals for single precision floating points <ADD,MAX,MUL,MAD,DIV>Default 1,1,1,1,5
-ptx_opcode_initiation_dp      64,64,64,64,130 # Opcode initiation intervals for double precision floating points <ADD,MAX,MUL,MAD,DIV>Default 8,8,8,8,130
-ptx_opcode_initiation_sfu                    8 # Opcode initiation intervals for sfu instructionsDefault 8
-ptx_opcode_initiation_tensor                   64 # Opcode initiation intervals for tensor instructionsDefault 64
-cdp_latency         7200,8000,100,12000,1600 # CDP API latency <cudaStreamCreateWithFlags, cudaGetParameterBufferV2_init_perWarp, cudaGetParameterBufferV2_perKernel, cudaLaunchDeviceV2_init_perWarp, cudaLaunchDevicV2_perKernel>Default 7200,8000,100,12000,1600
-network_mode                           2 # Interconnection network mode
-inter_config_file                   mesh # Interconnection network config file
-icnt_in_buffer_limit                  512 # in_buffer_limit
-icnt_out_buffer_limit                  512 # out_buffer_limit
-icnt_subnets                           2 # subnets
-icnt_arbiter_algo                      1 # arbiter_algo
-icnt_verbose                           0 # inct_verbose
-icnt_grant_cycles                      1 # grant_cycles
-gpgpu_ptx_use_cuobjdump                    1 # Use cuobjdump to extract ptx and sass from binaries
-gpgpu_experimental_lib_support                    0 # Try to extract code from cuda libraries [Broken because of unknown cudaGetExportTable]
-checkpoint_option                      0 #  checkpointing flag (0 = no checkpoint)
-checkpoint_kernel                      1 #  checkpointing during execution of which kernel (1- 1st kernel)
-checkpoint_CTA                         0 #  checkpointing after # of CTA (< less than total CTA)
-resume_option                          0 #  resume flag (0 = no resume)
-resume_kernel                          0 #  Resume from which kernel (1= 1st kernel)
-resume_CTA                             0 #  resume from which CTA 
-checkpoint_CTA_t                       0 #  resume from which CTA 
-checkpoint_insn_Y                      0 #  resume from which CTA 
-gpgpu_ptx_convert_to_ptxplus                    0 # Convert SASS (native ISA) to ptxplus and run ptxplus
-gpgpu_ptx_force_max_capability                   86 # Force maximum compute capability
-gpgpu_ptx_inst_debug_to_file                    0 # Dump executed instructions' debug information to file
-gpgpu_ptx_inst_debug_file       inst_debug.txt # Executed instructions' debug output file
-gpgpu_ptx_inst_debug_thread_uid                    1 # Thread UID for executed instructions' debug output
-gpgpu_simd_model                       1 # 1 = post-dominator
-gpgpu_shader_core_pipeline              1536:32 # shader core pipeline config, i.e., {<nthread>:<warpsize>}
-gpgpu_tex_cache:l1  N:4:128:256,L:R:m:N:L,T:512:8,128:2 # per-shader L1 texture cache  (READ-ONLY) config  {<nsets>:<bsize>:<assoc>,<rep>:<wr>:<alloc>:<wr_alloc>,<mshr>:<N>:<merge>,<mq>:<rf>}
-gpgpu_const_cache:l1 N:128:64:8,L:R:f:N:L,S:2:64,4 # per-shader L1 constant memory cache  (READ-ONLY) config  {<nsets>:<bsize>:<assoc>,<rep>:<wr>:<alloc>:<wr_alloc>,<mshr>:<N>:<merge>,<mq>} 
-gpgpu_cache:il1     N:64:128:16,L:R:f:N:L,S:2:48,4 # shader L1 instruction cache config  {<sector?>:<nsets>:<bsize>:<assoc>,<rep>:<wr>:<alloc>:<wr_alloc>:<set_index_fn>,<mshr>:<N>:<merge>,<mq>} 
-gpgpu_cache:dl1     N:32:128:4,L:L:m:N:H,S:64:8,8 # per-shader L1 data cache config  {<sector?>:<nsets>:<bsize>:<assoc>,<rep>:<wr>:<alloc>:<wr_alloc>:<set_index_fn>,<mshr>:<N>:<merge>,<mq>:<fifo_entry>,<data_port_width> | none}
-gpgpu_l1_cache_write_ratio                    0 # L1D write ratio
-gpgpu_l1_banks                         1 # The number of L1 cache banks
-gpgpu_l1_banks_byte_interleaving                   32 # l1 banks byte interleaving granularity
-gpgpu_l1_banks_hashing_function                    0 # l1 banks hashing function
-gpgpu_l1_latency                      35 # L1 Hit Latency
-gpgpu_smem_latency                    29 # smem Latency
-gpgpu_cache:dl1PrefL1                 none # per-shader L1 data cache config  {<sector?>:<nsets>:<bsize>:<assoc>,<rep>:<wr>:<alloc>:<wr_alloc>:<set_index_fn>,<mshr>:<N>:<merge>,<mq>:<fifo_entry>,<data_port_width> | none}
-gpgpu_cache:dl1PrefShared                 none # per-shader L1 data cache config  {<sector?>:<nsets>:<bsize>:<assoc>,<rep>:<wr>:<alloc>:<wr_alloc>:<set_index_fn>,<mshr>:<N>:<merge>,<mq>:<fifo_entry>,<data_port_width> | none}
-gpgpu_gmem_skip_L1D                    0 # global memory access skip L1D cache (implements -Xptxas -dlcm=cg, default=no skip)
-gpgpu_generate_L1D_profile                    0 # Generate per-SM per-kernel L1D reference profile
-gpgpu_use_L1D_profile_bypass                    1 # Use loaded per-SM per-kernel L1D reference profile for bypass
-gpgpu_L1D_profile_infile /accel-sim/accel-sim-framework/task2/l1d_profile.txt # Input file for profile-based L1D bypass
-gpgpu_L1D_profile_outfile      l1d_profile.txt # Output file for generated L1D profile
-gpgpu_L1D_profile_threshold                    3 # Bypass if profiled reference count is below this threshold
-gpgpu_perfect_mem                      0 # enable perfect memory mode (no cache miss)
-n_regfile_gating_group                    4 # group of lanes that should be read/written together)
-gpgpu_clock_gated_reg_file                    0 # enable clock gated reg file for power calculations
-gpgpu_clock_gated_lanes                    0 # enable clock gated lanes for power calculations
-gpgpu_shader_registers                65536 # Number of registers per shader core. Limits number of concurrent CTAs. (default 8192)
-gpgpu_registers_per_block                65536 # Maximum number of registers per CTA. (default 8192)
-gpgpu_ignore_resources_limitation                    0 # gpgpu_ignore_resources_limitation (default 0)
-gpgpu_shader_cta                       8 # Maximum number of concurrent CTAs in shader (default 32)
-gpgpu_num_cta_barriers                   16 # Maximum number of named barriers per CTA (default 16)
-gpgpu_n_clusters                      15 # number of processing clusters
-gpgpu_n_cores_per_cluster                    1 # number of simd cores per cluster
-gpgpu_n_cluster_ejection_buffer_size                   32 # number of packets in ejection buffer
-gpgpu_n_ldst_response_buffer_size                    2 # number of response packets in ld/st unit ejection buffer
-gpgpu_shmem_per_block                49152 # Size of shared memory per thread block or CTA (default 48kB)
-gpgpu_shmem_size                  102400 # Size of shared memory per shader core (default 16kB)
-gpgpu_shmem_option                     0 # Option list of shared memory sizes
-gpgpu_unified_l1d_size                    0 # Size of unified data cache(L1D + shared memory) in KB
-gpgpu_adaptive_cache_config                    0 # adaptive_cache_config
-gpgpu_shmem_sizeDefault               102400 # Size of shared memory per shader core (default 16kB)
-gpgpu_shmem_size_PrefL1                16384 # Size of shared memory per shader core (default 16kB)
-gpgpu_shmem_size_PrefShared                16384 # Size of shared memory per shader core (default 16kB)
-gpgpu_shmem_num_banks                   32 # Number of banks in the shared memory in each shader core (default 16)
-gpgpu_shmem_limited_broadcast                    0 # Limit shared memory to do one broadcast per cycle (default on)
-gpgpu_shmem_warp_parts                    1 # Number of portions a warp is divided into for shared memory bank conflict check 
-gpgpu_mem_unit_ports                    1 # The number of memory transactions allowed per core cycle
-gpgpu_shmem_warp_parts                    1 # Number of portions a warp is divided into for shared memory bank conflict check 
-gpgpu_warpdistro_shader                   -1 # Specify which shader core to collect the warp size distribution from
-gpgpu_warp_issue_shader                    0 # Specify which shader core to collect the warp issue distribution from
-gpgpu_local_mem_map                    1 # Mapping from local memory space address to simulated GPU physical address space (default = enabled)
-gpgpu_num_reg_banks                    8 # Number of register banks (default = 8)
-gpgpu_reg_bank_use_warp_id                    0 # Use warp ID in mapping registers to banks (default = off)
-gpgpu_sub_core_model                    1 # Sub Core Volta/Pascal model (default = off)
-gpgpu_enable_specialized_operand_collector                    0 # enable_specialized_operand_collector
-gpgpu_operand_collector_num_units_sp                    4 # number of collector units (default = 4)
-gpgpu_operand_collector_num_units_dp                    0 # number of collector units (default = 0)
-gpgpu_operand_collector_num_units_sfu                    4 # number of collector units (default = 4)
-gpgpu_operand_collector_num_units_int                    0 # number of collector units (default = 0)
-gpgpu_operand_collector_num_units_tensor_core                    4 # number of collector units (default = 4)
-gpgpu_operand_collector_num_units_mem                    2 # number of collector units (default = 2)
-gpgpu_operand_collector_num_units_gen                    8 # number of collector units (default = 0)
-gpgpu_operand_collector_num_in_ports_sp                    1 # number of collector unit in ports (default = 1)
-gpgpu_operand_collector_num_in_ports_dp                    0 # number of collector unit in ports (default = 0)
-gpgpu_operand_collector_num_in_ports_sfu                    1 # number of collector unit in ports (default = 1)
-gpgpu_operand_collector_num_in_ports_int                    0 # number of collector unit in ports (default = 0)
-gpgpu_operand_collector_num_in_ports_tensor_core                    1 # number of collector unit in ports (default = 1)
-gpgpu_operand_collector_num_in_ports_mem                    1 # number of collector unit in ports (default = 1)
-gpgpu_operand_collector_num_in_ports_gen                    8 # number of collector unit in ports (default = 0)
-gpgpu_operand_collector_num_out_ports_sp                    1 # number of collector unit in ports (default = 1)
-gpgpu_operand_collector_num_out_ports_dp                    0 # number of collector unit in ports (default = 0)
-gpgpu_operand_collector_num_out_ports_sfu                    1 # number of collector unit in ports (default = 1)
-gpgpu_operand_collector_num_out_ports_int                    0 # number of collector unit in ports (default = 0)
-gpgpu_operand_collector_num_out_ports_tensor_core                    1 # number of collector unit in ports (default = 1)
-gpgpu_operand_collector_num_out_ports_mem                    1 # number of collector unit in ports (default = 1)
-gpgpu_operand_collector_num_out_ports_gen                    8 # number of collector unit in ports (default = 0)
-gpgpu_coalesce_arch                   86 # Coalescing arch (GT200 = 13, Fermi = 20)
-gpgpu_num_sched_per_core                    4 # Number of warp schedulers per core
-gpgpu_max_insn_issue_per_warp                    1 # Max number of instructions that can be issued per warp in one cycle by scheduler (either 1 or 2)
-gpgpu_dual_issue_diff_exec_units                    1 # should dual issue use two different execution unit resources (Default = 1)
-gpgpu_simt_core_sim_order                    1 # Select the simulation order of cores in a cluster (0=Fix, 1=Round-Robin)
-gpgpu_pipeline_widths 4,4,4,4,4,4,4,4,4,4,8,4,4 # Pipeline widths ID_OC_SP,ID_OC_DP,ID_OC_INT,ID_OC_SFU,ID_OC_MEM,OC_EX_SP,OC_EX_DP,OC_EX_INT,OC_EX_SFU,OC_EX_MEM,EX_WB,ID_OC_TENSOR_CORE,OC_EX_TENSOR_CORE
-gpgpu_tensor_core_avail                    1 # Tensor Core Available (default=0)
-gpgpu_num_sp_units                     4 # Number of SP units (default=1)
-gpgpu_num_dp_units                     4 # Number of DP units (default=0)
-gpgpu_num_int_units                    4 # Number of INT units (default=0)
-gpgpu_num_sfu_units                    4 # Number of SF units (default=1)
-gpgpu_num_tensor_core_units                    4 # Number of tensor_core units (default=1)
-gpgpu_num_mem_units                    1 # Number if ldst units (default=1) WARNING: not hooked up to anything
-gpgpu_scheduler                      lrr # Scheduler configuration: < lrr | gto | two_level_active > If two_level_active:<num_active_warps>:<inner_prioritization>:<outer_prioritization>For complete list of prioritization values see shader.h enum scheduler_prioritization_typeDefault: gto
-gpgpu_concurrent_kernel_sm                    0 # Support concurrent kernels on a SM (default = disabled)
-gpgpu_perfect_inst_const_cache                    1 # perfect inst and const cache mode, so all inst and const hits in the cache(default = disabled)
-gpgpu_inst_fetch_throughput                    4 # the number of fetched intruction per warp each cycle
-gpgpu_reg_file_port_throughput                    2 # the number ports of the register file
-specialized_unit_1         1,4,4,4,4,BRA # specialized unit config {<enabled>,<num_units>:<latency>:<initiation>,<ID_OC_SPEC>:<OC_EX_SPEC>,<NAME>}
-specialized_unit_2       1,4,200,4,4,TEX # specialized unit config {<enabled>,<num_units>:<latency>:<initiation>,<ID_OC_SPEC>:<OC_EX_SPEC>,<NAME>}
-specialized_unit_3     1,4,32,4,4,TENSOR # specialized unit config {<enabled>,<num_units>:<latency>:<initiation>,<ID_OC_SPEC>:<OC_EX_SPEC>,<NAME>}
-specialized_unit_4         1,4,4,4,4,UDP # specialized unit config {<enabled>,<num_units>:<latency>:<initiation>,<ID_OC_SPEC>:<OC_EX_SPEC>,<NAME>}
-specialized_unit_5         0,4,4,4,4,BRA # specialized unit config {<enabled>,<num_units>:<latency>:<initiation>,<ID_OC_SPEC>:<OC_EX_SPEC>,<NAME>}
-specialized_unit_6         0,4,4,4,4,BRA # specialized unit config {<enabled>,<num_units>:<latency>:<initiation>,<ID_OC_SPEC>:<OC_EX_SPEC>,<NAME>}
-specialized_unit_7         0,4,4,4,4,BRA # specialized unit config {<enabled>,<num_units>:<latency>:<initiation>,<ID_OC_SPEC>:<OC_EX_SPEC>,<NAME>}
-specialized_unit_8         0,4,4,4,4,BRA # specialized unit config {<enabled>,<num_units>:<latency>:<initiation>,<ID_OC_SPEC>:<OC_EX_SPEC>,<NAME>}
-gpgpu_perf_sim_memcpy                    1 # Fill the L2 cache on memcpy
-gpgpu_simple_dram_model                    0 # simple_dram_model with fixed latency and BW
-gpgpu_dram_scheduler                    1 # 0 = fifo, 1 = FR-FCFS (defaul)
-gpgpu_dram_partition_queues          64:64:64:64 # i2$:$2d:d2$:$2i
-l2_ideal                               0 # Use a ideal L2 cache that always hit
-gpgpu_cache:dl2     S:64:128:16,L:B:m:L:P,A:192:4,32:0,32 # unified banked L2 data cache config  {<sector?>:<nsets>:<bsize>:<assoc>,<rep>:<wr>:<alloc>:<wr_alloc>:<set_index_fn>,<mshr>:<N>:<merge>,<mq>:<fifo_entry>,<data_port_width>
-gpgpu_cache:dl2_texture_only                    0 # L2 cache used for texture only
-gpgpu_n_mem                            6 # number of memory modules (e.g. memory controllers) in gpu
-gpgpu_n_sub_partition_per_mchannel                    2 # number of memory subpartition in each memory module
-gpgpu_n_mem_per_ctrlr                    2 # number of memory chips per memory controller
-gpgpu_memlatency_stat                   14 # track and display latency statistics 0x2 enables MC, 0x4 enables queue logs
-gpgpu_frfcfs_dram_sched_queue_size                   64 # 0 = unlimited (default); # entries per chip
-gpgpu_dram_return_queue_size                  116 # 0 = unlimited (default); # entries per chip
-gpgpu_dram_buswidth                    4 # default = 4 bytes (8 bytes per cycle at DDR)
-gpgpu_dram_burst_length                    8 # Burst length of each DRAM request (default = 4 data bus cycle)
-dram_data_command_freq_ratio                    4 # Frequency ratio between DRAM data bus and command bus (default = 2 times, i.e. DDR)
-gpgpu_dram_timing_opt nbk=16:CCD=2:RRD=6:RCD=12:RAS=28:RP=12:RC=40: CL=12:WL=4:CDLR=5:WR=12:nbkgrp=4:CCDL=3:RTPL=2 # DRAM timing parameters = {nbk:tCCD:tRRD:tRCD:tRAS:tRP:tRC:CL:WL:tCDLR:tWR:nbkgrp:tCCDL:tRTPL}
-gpgpu_l2_rop_latency                  120 # ROP queue latency (default 85)
-dram_latency                         100 # DRAM latency (default 30)
-dram_dual_bus_interface                    0 # dual_bus_interface (default = 0) 
-dram_bnk_indexing_policy                    0 # dram_bnk_indexing_policy (0 = normal indexing, 1 = Xoring with the higher bits) (Default = 0)
-dram_bnkgrp_indexing_policy                    1 # dram_bnkgrp_indexing_policy (0 = take higher bits, 1 = take lower bits) (Default = 0)
-dram_seperate_write_queue_enable                    0 # Seperate_Write_Queue_Enable
-dram_write_queue_size             32:28:16 # Write_Queue_Size
-dram_elimnate_rw_turnaround                    0 # elimnate_rw_turnaround i.e set tWTR and tRTW = 0
-icnt_flit_size                        40 # icnt_flit_size
-SST_mode                               0 # SST mode
-gpgpu_mem_addr_mapping dramid@8;00000000.00000000.00000000.00000000.0000RRRR.RRRRRRRR.BBBCCCCB.CCSSSSSS # mapping memory address to dram model {dramid@<start bit>;<memory address map>}
-gpgpu_mem_addr_test                    0 # run sweep test to check address mapping for aliased address
-gpgpu_mem_address_mask                    1 # 0 = old addressing mask, 1 = new addressing mask, 2 = new add. mask + flipped bank sel and chip sel bits
-gpgpu_memory_partition_indexing                    2 # 0 = no indexing, 1 = bitwise xoring, 2 = IPoly, 3 = custom indexing
-accelwattch_xml_file accelwattch_sass_sim.xml # AccelWattch XML file
-power_simulation_enabled                    0 # Turn on power simulator (1=On, 0=Off)
-power_per_cycle_dump                    0 # Dump detailed power output each cycle
-hw_perf_file_name            hw_perf.csv # Hardware Performance Statistics file
-hw_perf_bench_name                       # Kernel Name in Hardware Performance Statistics file
-power_simulation_mode                    0 # Switch performance counter input for power simulation (0=Sim, 1=HW, 2=HW-Sim Hybrid)
-dvfs_enabled                           0 # Turn on DVFS for power model
-aggregate_power_stats                    0 # Accumulate power across all kernels
-accelwattch_hybrid_perfsim_L1_RH                    0 # Get L1 Read Hits for Accelwattch-Hybrid from Accel-Sim
-accelwattch_hybrid_perfsim_L1_RM                    0 # Get L1 Read Misses for Accelwattch-Hybrid from Accel-Sim
-accelwattch_hybrid_perfsim_L1_WH                    0 # Get L1 Write Hits for Accelwattch-Hybrid from Accel-Sim
-accelwattch_hybrid_perfsim_L1_WM                    0 # Get L1 Write Misses for Accelwattch-Hybrid from Accel-Sim
-accelwattch_hybrid_perfsim_L2_RH                    0 # Get L2 Read Hits for Accelwattch-Hybrid from Accel-Sim
-accelwattch_hybrid_perfsim_L2_RM                    0 # Get L2 Read Misses for Accelwattch-Hybrid from Accel-Sim
-accelwattch_hybrid_perfsim_L2_WH                    0 # Get L2 Write Hits for Accelwattch-Hybrid from Accel-Sim
-accelwattch_hybrid_perfsim_L2_WM                    0 # Get L2 Write Misses for Accelwattch-Hybrid from Accel-Sim
-accelwattch_hybrid_perfsim_CC_ACC                    0 # Get Constant Cache Acesses for Accelwattch-Hybrid from Accel-Sim
-accelwattch_hybrid_perfsim_SHARED_ACC                    0 # Get Shared Memory Acesses for Accelwattch-Hybrid from Accel-Sim
-accelwattch_hybrid_perfsim_DRAM_RD                    0 # Get DRAM Reads for Accelwattch-Hybrid from Accel-Sim
-accelwattch_hybrid_perfsim_DRAM_WR                    0 # Get DRAM Writes for Accelwattch-Hybrid from Accel-Sim
-accelwattch_hybrid_perfsim_NOC                    0 # Get Interconnect Acesses for Accelwattch-Hybrid from Accel-Sim
-accelwattch_hybrid_perfsim_PIPE_DUTY                    0 # Get Pipeline Duty Cycle Acesses for Accelwattch-Hybrid from Accel-Sim
-accelwattch_hybrid_perfsim_NUM_SM_IDLE                    0 # Get Number of Idle SMs for Accelwattch-Hybrid from Accel-Sim
-accelwattch_hybrid_perfsim_CYCLES                    0 # Get Executed Cycles for Accelwattch-Hybrid from Accel-Sim
-accelwattch_hybrid_perfsim_VOLTAGE                    0 # Get Chip Voltage for Accelwattch-Hybrid from Accel-Sim
-power_trace_enabled                    0 # produce a file for the power trace (1=On, 0=Off)
-power_trace_zlevel                     6 # Compression level of the power trace output log (0=no comp, 9=highest)
-steady_power_levels_enabled                    0 # produce a file for the steady power levels (1=On, 0=Off)
-steady_state_definition                  8:4 # allowed deviation:number of samples
-gpgpu_max_cycle                        0 # terminates gpu simulation early (0 = no limit)
-gpgpu_max_insn                 100000000 # terminates gpu simulation early (0 = no limit)
-gpgpu_max_cta                          0 # terminates gpu simulation early (0 = no limit)
-gpgpu_max_completed_cta                    0 # terminates gpu simulation early (0 = no limit)
-gpgpu_runtime_stat                   500 # display runtime statistics such as dram utilization {<freq>:<flag>}
-liveness_message_freq                    1 # Minimum number of seconds between simulation liveness messages (0 = always print)
-gpgpu_compute_capability_major                    8 # Major compute capability version number
-gpgpu_compute_capability_minor                    6 # Minor compute capability version number
-gpgpu_flush_l1_cache                    1 # Flush L1 cache at the end of each kernel call
-gpgpu_flush_l2_cache                    0 # Flush L2 cache at the end of each kernel call
-gpgpu_deadlock_detect                    1 # Stop the simulation at deadlock (1=on (default), 0=off)
-gpgpu_ptx_instruction_classification                    0 # if enabled will classify ptx instruction types per kernel (Max 255 kernels now)
-gpgpu_ptx_sim_mode                     0 # Select between Performance (default) or Functional simulation (1)
-gpgpu_clock_domains 1132:1132:1132:3500.5 # Clock Domain Frequencies in MhZ {<Core Clock>:<ICNT Clock>:<L2 Clock>:<DRAM Clock>}
-gpgpu_max_concurrent_kernel                  128 # maximum kernels that can run concurrently on GPU, set this value according to max resident grids for your compute capability
-gpgpu_cflog_interval                    0 # Interval between each snapshot in control flow logger
-visualizer_enabled                     0 # Turn on visualizer output (1=On, 0=Off)
-visualizer_outputfile                 NULL # Specifies the output log file for visualizer
-visualizer_zlevel                      6 # Compression level of the visualizer output log (0=no comp, 9=highest)
-gpgpu_stack_size_limit                 1024 # GPU thread stack size
-gpgpu_heap_size_limit              8388608 # GPU malloc heap size 
-gpgpu_runtime_sync_depth_limit                    2 # GPU device runtime synchronize depth
-gpgpu_runtime_pending_launch_count_limit                 2048 # GPU device runtime pending launch count
-trace_enabled                          0 # Turn on traces
-trace_components                    none # comma seperated list of traces to enable. Complete list found in trace_streams.tup. Default none
-trace_sampling_core                    0 # The core which is printed using CORE_DPRINTF. Default 0
-trace_sampling_memory_partition                   -1 # The memory partition which is printed using MEMPART_DPRINTF. Default -1 (i.e. all)
-enable_ptx_file_line_stats                    1 # Turn on PTX source line statistic profiling. (1 = On)
-ptx_line_stats_filename gpgpu_inst_stats.txt # Output file for PTX source line statistics.
-gpgpu_kernel_launch_latency                 5000 # Kernel launch latency in cycles. Default: 0
-gpgpu_cdp_enabled                      0 # Turn on CDP
-gpgpu_TB_launch_latency                    0 # thread block launch latency in cycles. Default: 0
-trace               ./util/tracer_nvbit/BFS_traces/kernelslist.g # traces kernel filetraces kernel file directory
-trace_opcode_latency_initiation_int                  2,2 # Opcode latencies and initiation for integers in trace driven mode <latency,initiation>
-trace_opcode_latency_initiation_sp                  2,1 # Opcode latencies and initiation for sp in trace driven mode <latency,initiation>
-trace_opcode_latency_initiation_dp                64,64 # Opcode latencies and initiation for dp in trace driven mode <latency,initiation>
-trace_opcode_latency_initiation_sfu                 21,8 # Opcode latencies and initiation for sfu in trace driven mode <latency,initiation>
-trace_opcode_latency_initiation_tensor                32,32 # Opcode latencies and initiation for tensor in trace driven mode <latency,initiation>
-trace_opcode_latency_initiation_spec_op_1                  4,4 # specialized unit config <latency,initiation>
-trace_opcode_latency_initiation_spec_op_2                200,4 # specialized unit config <latency,initiation>
-trace_opcode_latency_initiation_spec_op_3                32,32 # specialized unit config <latency,initiation>
-trace_opcode_latency_initiation_spec_op_4                  4,1 # specialized unit config <latency,initiation>
-trace_opcode_latency_initiation_spec_op_5                  4,4 # specialized unit config <latency,initiation>
-trace_opcode_latency_initiation_spec_op_6                  4,4 # specialized unit config <latency,initiation>
-trace_opcode_latency_initiation_spec_op_7                  4,4 # specialized unit config <latency,initiation>
-trace_opcode_latency_initiation_spec_op_8                  4,4 # specialized unit config <latency,initiation>
DRAM Timing Options:
nbk                                    16 # number of banks
CCD                                     2 # column to column delay
RRD                                     6 # minimal delay between activation of rows in different banks
RCD                                    12 # row to column delay
RAS                                    28 # time needed to activate row
RP                                     12 # time needed to precharge (deactivate) row
RC                                     40 # row cycle time
CDLR                                    5 # switching from write to read (changes tWTR)
WR                                     12 # last data-in to row precharge
CL                                     12 # CAS latency
WL                                      4 # Write latency
nbkgrp                                  4 # number of bank groups
CCDL                                    3 # column to column delay between accesses to different bank groups
RTPL                                    2 # read to precharge delay between accesses to different bank groups
Total number of memory sub partition = 12
addr_dec_mask[CHIP]  = 0000000000000000 	high:64 low:0
addr_dec_mask[BK]    = 000000000000e100 	high:16 low:8
addr_dec_mask[ROW]   = 000000000fff0000 	high:28 low:16
addr_dec_mask[COL]   = 0000000000001eff 	high:13 low:0
addr_dec_mask[BURST] = 000000000000003f 	high:6 low:0
sub_partition_id_mask = 0000000000000100
GPGPU-Sim uArch: clock freqs: 1132000000.000000:1132000000.000000:1132000000.000000:3500500000.000000
GPGPU-Sim uArch: clock periods: 0.00000000088339222615:0.00000000088339222615:0.00000000088339222615:0.00000000028567347522
*** Initializing Memory Statistics ***
GPGPU-Sim uArch: performance model initialization complete.
launching memcpy command : MemcpyHtoD,0x00007edd61400000,524288
launching memcpy command : MemcpyHtoD,0x00007edd61480000,1572864
launching memcpy command : MemcpyHtoD,0x00007edd61600000,65536
launching memcpy command : MemcpyHtoD,0x00007edd61610000,65536
launching memcpy command : MemcpyHtoD,0x00007edd61620000,262144
launching memcpy command : MemcpyHtoD,0x00007edd61660000,1
Processing kernel ./util/tracer_nvbit/BFS_traces/kernel-1-ctx_0x38a97040.traceg.xz
-kernel name = _Z6KernelP4NodePiPbS2_S1_S2_i
-kernel id = 1
-grid dim = (256,1,1)
-block dim = (256,1,1)
-shmem = 0
-nregs = 23
-binary version = 86
-cuda stream id = 0
-shmem base_addr = 0x00007edd79000000
-local mem base_addr = 0x00007edd77000000
-nvbit version = 1.7.6
-accelsim tracer version = 5
-enable lineinfo = 0
Header info loaded for kernel command : ./util/tracer_nvbit/BFS_traces/kernel-1-ctx_0x38a97040.traceg.xz
launching kernel name: _Z6KernelP4NodePiPbS2_S1_S2_i uid: 1 cuda_stream_id: 0
GPGPU-Sim uArch: Shader 0 bind to kernel 1 '_Z6KernelP4NodePiPbS2_S1_S2_i'
GPGPU-Sim uArch: CTA/core = 6, limited by: threads
thread block = 0,0,0
GPGPU-Sim uArch: Shader 1 bind to kernel 1 '_Z6KernelP4NodePiPbS2_S1_S2_i'
thread block = 1,0,0
GPGPU-Sim uArch: Shader 2 bind to kernel 1 '_Z6KernelP4NodePiPbS2_S1_S2_i'
thread block = 2,0,0
GPGPU-Sim uArch: Shader 3 bind to kernel 1 '_Z6KernelP4NodePiPbS2_S1_S2_i'
thread block = 3,0,0
GPGPU-Sim uArch: Shader 4 bind to kernel 1 '_Z6KernelP4NodePiPbS2_S1_S2_i'
thread block = 4,0,0
GPGPU-Sim uArch: Shader 5 bind to kernel 1 '_Z6KernelP4NodePiPbS2_S1_S2_i'
thread block = 5,0,0
GPGPU-Sim uArch: Shader 6 bind to kernel 1 '_Z6KernelP4NodePiPbS2_S1_S2_i'
thread block = 6,0,0
GPGPU-Sim uArch: Shader 7 bind to kernel 1 '_Z6KernelP4NodePiPbS2_S1_S2_i'
thread block = 7,0,0
GPGPU-Sim uArch: Shader 8 bind to kernel 1 '_Z6KernelP4NodePiPbS2_S1_S2_i'
thread block = 8,0,0
GPGPU-Sim uArch: Shader 9 bind to kernel 1 '_Z6KernelP4NodePiPbS2_S1_S2_i'
thread block = 9,0,0
GPGPU-Sim uArch: Shader 10 bind to kernel 1 '_Z6KernelP4NodePiPbS2_S1_S2_i'
thread block = 10,0,0
GPGPU-Sim uArch: Shader 11 bind to kernel 1 '_Z6KernelP4NodePiPbS2_S1_S2_i'
thread block = 11,0,0
GPGPU-Sim uArch: Shader 12 bind to kernel 1 '_Z6KernelP4NodePiPbS2_S1_S2_i'
thread block = 12,0,0
GPGPU-Sim uArch: Shader 13 bind to kernel 1 '_Z6KernelP4NodePiPbS2_S1_S2_i'
thread block = 13,0,0
GPGPU-Sim uArch: Shader 14 bind to kernel 1 '_Z6KernelP4NodePiPbS2_S1_S2_i'
thread block = 14,0,0
thread block = 15,0,0
thread block = 16,0,0
thread block = 17,0,0
thread block = 18,0,0
thread block = 19,0,0
thread block = 20,0,0
thread block = 21,0,0
thread block = 22,0,0
thread block = 23,0,0
thread block = 24,0,0
thread block = 25,0,0
thread block = 26,0,0
thread block = 27,0,0
thread block = 28,0,0
thread block = 29,0,0
thread block = 30,0,0
thread block = 31,0,0
thread block = 32,0,0
thread block = 33,0,0
thread block = 34,0,0
thread block = 35,0,0
thread block = 36,0,0
thread block = 37,0,0
thread block = 38,0,0
thread block = 39,0,0
thread block = 40,0,0
thread block = 41,0,0
thread block = 42,0,0
thread block = 43,0,0
thread block = 44,0,0
thread block = 45,0,0
thread block = 46,0,0
thread block = 47,0,0
thread block = 48,0,0
thread block = 49,0,0
thread block = 50,0,0
thread block = 51,0,0
thread block = 52,0,0
thread block = 53,0,0
thread block = 54,0,0
thread block = 55,0,0
thread block = 56,0,0
thread block = 57,0,0
thread block = 58,0,0
thread block = 59,0,0
thread block = 60,0,0
thread block = 61,0,0
thread block = 62,0,0
thread block = 63,0,0
thread block = 64,0,0
thread block = 65,0,0
thread block = 66,0,0
thread block = 67,0,0
thread block = 68,0,0
thread block = 69,0,0
thread block = 70,0,0
thread block = 71,0,0
thread block = 72,0,0
thread block = 73,0,0
thread block = 74,0,0
thread block = 75,0,0
thread block = 76,0,0
thread block = 77,0,0
thread block = 78,0,0
thread block = 79,0,0
thread block = 80,0,0
thread block = 81,0,0
thread block = 82,0,0
thread block = 83,0,0
thread block = 84,0,0
thread block = 85,0,0
thread block = 86,0,0
thread block = 87,0,0
thread block = 88,0,0
thread block = 89,0,0
thread block = 90,0,0
thread block = 91,0,0
thread block = 92,0,0
thread block = 93,0,0
thread block = 94,0,0
thread block = 95,0,0
thread block = 96,0,0
thread block = 97,0,0
thread block = 98,0,0
thread block = 99,0,0
thread block = 100,0,0
thread block = 101,0,0
thread block = 102,0,0
thread block = 103,0,0
thread block = 104,0,0
thread block = 105,0,0
thread block = 106,0,0
thread block = 107,0,0
thread block = 108,0,0
thread block = 109,0,0
thread block = 110,0,0
thread block = 111,0,0
thread block = 112,0,0
thread block = 113,0,0
thread block = 114,0,0
thread block = 115,0,0
thread block = 116,0,0
thread block = 117,0,0
thread block = 118,0,0
thread block = 119,0,0
thread block = 120,0,0
thread block = 121,0,0
thread block = 122,0,0
thread block = 123,0,0
thread block = 124,0,0
thread block = 125,0,0
thread block = 126,0,0
thread block = 127,0,0
thread block = 128,0,0
thread block = 129,0,0
thread block = 130,0,0
thread block = 131,0,0
thread block = 132,0,0
thread block = 133,0,0
thread block = 134,0,0
thread block = 135,0,0
thread block = 136,0,0
thread block = 137,0,0
thread block = 138,0,0
thread block = 139,0,0
thread block = 140,0,0
thread block = 141,0,0
thread block = 142,0,0
thread block = 143,0,0
thread block = 144,0,0
thread block = 145,0,0
thread block = 146,0,0
thread block = 147,0,0
thread block = 148,0,0
thread block = 149,0,0
thread block = 150,0,0
thread block = 151,0,0
thread block = 152,0,0
thread block = 153,0,0
thread block = 154,0,0
thread block = 155,0,0
thread block = 156,0,0
thread block = 157,0,0
thread block = 158,0,0
thread block = 159,0,0
thread block = 160,0,0
thread block = 161,0,0
thread block = 162,0,0
thread block = 163,0,0
thread block = 164,0,0
thread block = 165,0,0
thread block = 166,0,0
thread block = 167,0,0
thread block = 168,0,0
thread block = 169,0,0
thread block = 170,0,0
thread block = 171,0,0
thread block = 172,0,0
thread block = 173,0,0
thread block = 174,0,0
thread block = 175,0,0
thread block = 176,0,0
thread block = 177,0,0
thread block = 178,0,0
thread block = 179,0,0
thread block = 180,0,0
thread block = 181,0,0
thread block = 182,0,0
thread block = 183,0,0
thread block = 184,0,0
thread block = 185,0,0
thread block = 186,0,0
thread block = 187,0,0
thread block = 188,0,0
thread block = 189,0,0
thread block = 190,0,0
thread block = 191,0,0
thread block = 192,0,0
thread block = 193,0,0
thread block = 194,0,0
thread block = 195,0,0
thread block = 196,0,0
thread block = 197,0,0
thread block = 198,0,0
thread block = 199,0,0
thread block = 200,0,0
thread block = 201,0,0
thread block = 202,0,0
thread block = 203,0,0
thread block = 204,0,0
thread block = 205,0,0
thread block = 206,0,0
thread block = 207,0,0
thread block = 208,0,0
thread block = 209,0,0
thread block = 210,0,0
thread block = 211,0,0
thread block = 212,0,0
thread block = 213,0,0
thread block = 214,0,0
thread block = 215,0,0
thread block = 216,0,0
thread block = 217,0,0
thread block = 218,0,0
thread block = 219,0,0
thread block = 220,0,0
thread block = 221,0,0
thread block = 222,0,0
thread block = 223,0,0
thread block = 224,0,0
thread block = 225,0,0
thread block = 226,0,0
thread block = 227,0,0
thread block = 228,0,0
thread block = 229,0,0
thread block = 230,0,0
thread block = 231,0,0
thread block = 232,0,0
thread block = 233,0,0
thread block = 234,0,0
thread block = 235,0,0
thread block = 236,0,0
thread block = 237,0,0
thread block = 238,0,0
thread block = 239,0,0
thread block = 240,0,0
thread block = 241,0,0
thread block = 242,0,0
thread block = 243,0,0
thread block = 244,0,0
thread block = 245,0,0
thread block = 246,0,0
thread block = 247,0,0
thread block = 248,0,0
thread block = 249,0,0
thread block = 250,0,0
thread block = 251,0,0
thread block = 252,0,0
thread block = 253,0,0
thread block = 254,0,0
thread block = 255,0,0
Destroy streams for kernel 1: size 0
kernel_name = _Z6KernelP4NodePiPbS2_S1_S2_i 
kernel_launch_uid = 1 
kernel_stream_id = 0
gpu_sim_cycle = 9581
gpu_sim_insn = 786680
gpu_ipc =      82.1083
gpu_tot_sim_cycle = 9581
gpu_tot_sim_insn = 786680
gpu_tot_ipc =      82.1083
gpu_tot_issued_cta = 256
gpu_occupancy = 76.8930% 
gpu_tot_occupancy = 76.8930% 
max_total_param_size = 0
gpu_stall_dramfull = 0
gpu_stall_icnt2sh    = 0
partiton_level_parallism =       0.0573
partiton_level_parallism_total  =       0.0573
partiton_level_parallism_util =       1.7429
partiton_level_parallism_util_total  =       1.7429
L2_BW  =       7.9170 GB/Sec
L2_BW_total  =       7.9170 GB/Sec
gpu_total_sim_rate=786680

========= Core cache stats =========
L1I_cache:
	L1I_total_cache_accesses = 0
	L1I_total_cache_misses = 0
	L1I_total_cache_pending_hits = 0
	L1I_total_cache_reservation_fails = 0
L1D_cache:
	L1D_cache_core[0]: Access = 163, Miss = 41, Miss_rate = 0.252, Pending_hits = 90, Reservation_fails = 0
	L1D_cache_core[1]: Access = 136, Miss = 34, Miss_rate = 0.250, Pending_hits = 102, Reservation_fails = 0
	L1D_cache_core[2]: Access = 144, Miss = 36, Miss_rate = 0.250, Pending_hits = 108, Reservation_fails = 0
	L1D_cache_core[3]: Access = 136, Miss = 34, Miss_rate = 0.250, Pending_hits = 102, Reservation_fails = 0
	L1D_cache_core[4]: Access = 144, Miss = 36, Miss_rate = 0.250, Pending_hits = 108, Reservation_fails = 0
	L1D_cache_core[5]: Access = 136, Miss = 34, Miss_rate = 0.250, Pending_hits = 102, Reservation_fails = 0
	L1D_cache_core[6]: Access = 136, Miss = 34, Miss_rate = 0.250, Pending_hits = 102, Reservation_fails = 0
	L1D_cache_core[7]: Access = 144, Miss = 36, Miss_rate = 0.250, Pending_hits = 108, Reservation_fails = 0
	L1D_cache_core[8]: Access = 136, Miss = 34, Miss_rate = 0.250, Pending_hits = 102, Reservation_fails = 0
	L1D_cache_core[9]: Access = 136, Miss = 34, Miss_rate = 0.250, Pending_hits = 102, Reservation_fails = 0
	L1D_cache_core[10]: Access = 136, Miss = 34, Miss_rate = 0.250, Pending_hits = 102, Reservation_fails = 0
	L1D_cache_core[11]: Access = 144, Miss = 36, Miss_rate = 0.250, Pending_hits = 108, Reservation_fails = 0
	L1D_cache_core[12]: Access = 128, Miss = 32, Miss_rate = 0.250, Pending_hits = 96, Reservation_fails = 0
	L1D_cache_core[13]: Access = 128, Miss = 32, Miss_rate = 0.250, Pending_hits = 96, Reservation_fails = 0
	L1D_cache_core[14]: Access = 144, Miss = 36, Miss_rate = 0.250, Pending_hits = 108, Reservation_fails = 0
	L1D_total_cache_accesses = 2091
	L1D_total_cache_misses = 523
	L1D_total_cache_miss_rate = 0.2501
	L1D_total_cache_pending_hits = 1536
	L1D_total_cache_reservation_fails = 0
	L1D_cache_data_port_util = 0.001
	L1D_cache_fill_port_util = 0.022
L1C_cache:
	L1C_total_cache_accesses = 0
	L1C_total_cache_misses = 0
	L1C_total_cache_pending_hits = 0
	L1C_total_cache_reservation_fails = 0
L1T_cache:
	L1T_total_cache_accesses = 0
	L1T_total_cache_misses = 0
	L1T_total_cache_pending_hits = 0
	L1T_total_cache_reservation_fails = 0

Total_core_cache_stats:
	Total_core_cache_stats_breakdown[GLOBAL_ACC_R][HIT] = 31
	Total_core_cache_stats_breakdown[GLOBAL_ACC_R][HIT_RESERVED] = 1536
	Total_core_cache_stats_breakdown[GLOBAL_ACC_R][MISS] = 515
	Total_core_cache_stats_breakdown[GLOBAL_ACC_R][RESERVATION_FAIL] = 0
	Total_core_cache_stats_breakdown[GLOBAL_ACC_R][SECTOR_MISS] = 0
	Total_core_cache_stats_breakdown[GLOBAL_ACC_R][MSHR_HIT] = 1536
	Total_core_cache_stats_breakdown[LOCAL_ACC_R][HIT] = 0
	Total_core_cache_stats_breakdown[LOCAL_ACC_R][HIT_RESERVED] = 0
	Total_core_cache_stats_breakdown[LOCAL_ACC_R][MISS] = 0
	Total_core_cache_stats_breakdown[LOCAL_ACC_R][RESERVATION_FAIL] = 0
	Total_core_cache_stats_breakdown[LOCAL_ACC_R][SECTOR_MISS] = 0
	Total_core_cache_stats_breakdown[LOCAL_ACC_R][MSHR_HIT] = 0
	Total_core_cache_stats_breakdown[CONST_ACC_R][HIT] = 0
	Total_core_cache_stats_breakdown[CONST_ACC_R][HIT_RESERVED] = 0
	Total_core_cache_stats_breakdown[CONST_ACC_R][MISS] = 0
	Total_core_cache_stats_breakdown[CONST_ACC_R][RESERVATION_FAIL] = 0
	Total_core_cache_stats_breakdown[CONST_ACC_R][SECTOR_MISS] = 0
	Total_core_cache_stats_breakdown[CONST_ACC_R][MSHR_HIT] = 0
	Total_core_cache_stats_breakdown[TEXTURE_ACC_R][HIT] = 0
	Total_core_cache_stats_breakdown[TEXTURE_ACC_R][HIT_RESERVED] = 0
	Total_core_cache_stats_breakdown[TEXTURE_ACC_R][MISS] = 0
	Total_core_cache_stats_breakdown[TEXTURE_ACC_R][RESERVATION_FAIL] = 0
	Total_core_cache_stats_breakdown[TEXTURE_ACC_R][SECTOR_MISS] = 0
	Total_core_cache_stats_breakdown[TEXTURE_ACC_R][MSHR_HIT] = 0
	Total_core_cache_stats_breakdown[GLOBAL_ACC_W][HIT] = 1
	Total_core_cache_stats_breakdown[GLOBAL_ACC_W][HIT_RESERVED] = 0
	Total_core_cache_stats_breakdown[GLOBAL_ACC_W][MISS] = 8
	Total_core_cache_stats_breakdown[GLOBAL_ACC_W][RESERVATION_FAIL] = 0
	Total_core_cache_stats_breakdown[GLOBAL_ACC_W][SECTOR_MISS] = 0
	Total_core_cache_stats_breakdown[GLOBAL_ACC_W][MSHR_HIT] = 0
	Total_core_cache_stats_breakdown[LOCAL_ACC_W][HIT] = 0
	Total_core_cache_stats_breakdown[LOCAL_ACC_W][HIT_RESERVED] = 0
	Total_core_cache_stats_breakdown[LOCAL_ACC_W][MISS] = 0
	Total_core_cache_stats_breakdown[LOCAL_ACC_W][RESERVATION_FAIL] = 0
	Total_core_cache_stats_breakdown[LOCAL_ACC_W][SECTOR_MISS] = 0
	Total_core_cache_stats_breakdown[LOCAL_ACC_W][MSHR_HIT] = 0
	Total_core_cache_stats_breakdown[L1_WRBK_ACC][HIT] = 0
	Total_core_cache_stats_breakdown[L1_WRBK_ACC][HIT_RESERVED] = 0
	Total_core_cache_stats_breakdown[L1_WRBK_ACC][MISS] = 0
	Total_core_cache_stats_breakdown[L1_WRBK_ACC][RESERVATION_FAIL] = 0
	Total_core_cache_stats_breakdown[L1_WRBK_ACC][SECTOR_MISS] = 0
	Total_core_cache_stats_breakdown[L1_WRBK_ACC][MSHR_HIT] = 0
	Total_core_cache_stats_breakdown[L2_WRBK_ACC][HIT] = 0
	Total_core_cache_stats_breakdown[L2_WRBK_ACC][HIT_RESERVED] = 0
	Total_core_cache_stats_breakdown[L2_WRBK_ACC][MISS] = 0
	Total_core_cache_stats_breakdown[L2_WRBK_ACC][RESERVATION_FAIL] = 0
	Total_core_cache_stats_breakdown[L2_WRBK_ACC][SECTOR_MISS] = 0
	Total_core_cache_stats_breakdown[L2_WRBK_ACC][MSHR_HIT] = 0
	Total_core_cache_stats_breakdown[INST_ACC_R][HIT] = 0
	Total_core_cache_stats_breakdown[INST_ACC_R][HIT_RESERVED] = 0
	Total_core_cache_stats_breakdown[INST_ACC_R][MISS] = 0
	Total_core_cache_stats_breakdown[INST_ACC_R][RESERVATION_FAIL] = 0
	Total_core_cache_stats_breakdown[INST_ACC_R][SECTOR_MISS] = 0
	Total_core_cache_stats_breakdown[INST_ACC_R][MSHR_HIT] = 0
	Total_core_cache_stats_breakdown[L1_WR_ALLOC_R][HIT] = 0
	Total_core_cache_stats_breakdown[L1_WR_ALLOC_R][HIT_RESERVED] = 0
	Total_core_cache_stats_breakdown[L1_WR_ALLOC_R][MISS] = 0
	Total_core_cache_stats_breakdown[L1_WR_ALLOC_R][RESERVATION_FAIL] = 0
	Total_core_cache_stats_breakdown[L1_WR_ALLOC_R][SECTOR_MISS] = 0
	Total_core_cache_stats_breakdown[L1_WR_ALLOC_R][MSHR_HIT] = 0
	Total_core_cache_stats_breakdown[L2_WR_ALLOC_R][HIT] = 0
	Total_core_cache_stats_breakdown[L2_WR_ALLOC_R][HIT_RESERVED] = 0
	Total_core_cache_stats_breakdown[L2_WR_ALLOC_R][MISS] = 0
	Total_core_cache_stats_breakdown[L2_WR_ALLOC_R][RESERVATION_FAIL] = 0
	Total_core_cache_stats_breakdown[L2_WR_ALLOC_R][SECTOR_MISS] = 0
	Total_core_cache_stats_breakdown[L2_WR_ALLOC_R][MSHR_HIT] = 0
	Total_core_cache_stats_breakdown[GLOBAL_ACC_R][TOTAL_ACCESS] = 2082
	Total_core_cache_stats_breakdown[GLOBAL_ACC_W][TOTAL_ACCESS] = 9

Total_core_cache_fail_stats:
ctas_completed 256, Shader 0 warp_id issue ditsribution:
warp_id:
0, 1, 2, 3, 4, 5, 6, 7, 8, 9, 10, 11, 12, 13, 14, 15, 16, 17, 18, 19, 20, 21, 22, 23, 24, 25, 26, 27, 28, 29, 30, 31, 32, 33, 34, 35, 36, 37, 38, 39, 40, 41, 42, 43, 44, 45, 46, 47, 
distro:
264, 13, 13, 13, 13, 13, 13, 13, 39, 39, 39, 39, 39, 39, 39, 39, 39, 39, 39, 39, 39, 39, 39, 39, 39, 39, 39, 39, 39, 39, 39, 39, 39, 39, 39, 39, 39, 39, 39, 39, 26, 26, 26, 26, 26, 26, 26, 26, 
gpgpu_n_tot_thrd_icount = 860000
gpgpu_n_tot_w_icount = 26875
gpgpu_n_stall_shd_mem = 0
gpgpu_n_mem_read_local = 0
gpgpu_n_mem_write_local = 0
gpgpu_n_mem_read_global = 523
gpgpu_n_mem_write_global = 26
gpgpu_n_mem_texture = 0
gpgpu_n_mem_const = 0
gpgpu_n_load_insn  = 65578
gpgpu_n_store_insn = 26
gpgpu_n_shmem_insn = 0
gpgpu_n_sstarr_insn = 0
gpgpu_n_tex_insn = 0
gpgpu_n_const_mem_insn = 0
gpgpu_n_param_mem_insn = 0
gpgpu_n_shmem_bkconflict = 0
gpgpu_n_l1cache_bkconflict = 0
gpgpu_n_intrawarp_mshr_merge = 0
gpgpu_n_cmem_portconflict = 0
gpgpu_stall_shd_mem[c_mem][resource_stall] = 0
gpgpu_stall_shd_mem[s_mem][bk_conf] = 0
gpgpu_stall_shd_mem[gl_mem][resource_stall] = 0
gpgpu_stall_shd_mem[gl_mem][coal_stall] = 0
gpgpu_stall_shd_mem[gl_mem][data_port_stall] = 0
gpu_reg_bank_conflict_stalls = 0
Warp Occupancy Distribution:
Stall:14119	W0_Idle:10285	W0_Scoreboard:46575	W1:249	W2:0	W3:0	W4:0	W5:0	W6:0	W7:0	W8:0	W9:0	W10:0	W11:0	W12:0	W13:0	W14:0	W15:0	W16:0	W17:0	W18:0	W19:0	W20:0	W21:0	W22:0	W23:0	W24:0	W25:0	W26:0	W27:0	W28:0	W29:0	W30:0	W31:1	W32:24575
single_issue_nums: WS0:6907	WS1:6656	WS2:6656	WS3:6656	
dual_issue_nums: WS0:0	WS1:0	WS2:0	WS3:0	
traffic_breakdown_coretomem[GLOBAL_ACC_R] = 4184 {8:523,}
traffic_breakdown_coretomem[GLOBAL_ACC_W] = 1040 {40:26,}
traffic_breakdown_memtocore[GLOBAL_ACC_R] = 82720 {40:2068,}
traffic_breakdown_memtocore[GLOBAL_ACC_W] = 208 {8:26,}
maxmflatency = 316 
max_icnt2mem_latency = 44 
maxmrqlatency = 22 
max_icnt2sh_latency = 20 
averagemflatency = 243 
avg_icnt2mem_latency = 9 
avg_mrq_latency = 1 
avg_icnt2sh_latency = 3 
mrq_lat_table:1491 	229 	183 	143 	22 	0 	0 	0 	0 	0 	0 	0 	0 	0 	0 	0 	0 	0 	0 	0 	0 	0 	0 	0 	0 	0 	0 	0 	0 	0 	0 	0 	
dq_lat_table:0 	0 	0 	0 	0 	0 	0 	0 	0 	0 	0 	0 	0 	0 	0 	0 	0 	0 	0 	0 	0 	0 	0 	0 	0 	0 	0 	0 	0 	0 	0 	0 	
mf_lat_table:0 	0 	0 	0 	0 	0 	17 	1749 	328 	0 	0 	0 	0 	0 	0 	0 	0 	0 	0 	0 	0 	0 	0 	0 	0 	0 	0 	0 	0 	0 	0 	0 	
icnt2mem_lat_table:0 	25 	0 	0 	0 	524 	0 	0 	0 	0 	0 	0 	0 	0 	0 	0 	0 	0 	0 	0 	0 	0 	0 	0 	
icnt2sh_lat_table:0 	1539 	344 	193 	18 	0 	0 	0 	0 	0 	0 	0 	0 	0 	0 	0 	0 	0 	0 	0 	0 	0 	0 	0 	
mf_lat_pw_table:0 	0 	0 	0 	0 	0 	0 	9 	0 	0 	0 	0 	0 	0 	0 	0 	0 	0 	0 	0 	0 	0 	0 	0 	0 	0 	0 	0 	0 	0 	0 	0 	
maximum concurrent accesses to same row:
dram[0]:         0         0         0         0         0         0         0         0         0         0         0         0         0         0         0         0 
dram[1]:         0         0         0         0         0         0         0         0         0         0         0         0         0         0         0         0 
dram[2]:         0         0         0         0         0         0         0         0         0         0         0         0         0         0         0         0 
dram[3]:         0         0         0         0         0         0         0         0         0         0         0         0         0         0         0         0 
dram[4]:        96         0         0         0         0         0         0         0         0         0         0         0         0         0         0         0 
dram[5]:         0         0         0         0         0         0         0         0         0         0         0         0         0         0         0         0 
maximum service time to same row:
dram[0]:      5428      5432      6164      6217      6982         0         0         0         0         0      5741         0         0         0         0         0 
dram[1]:      5432      5428      6194      6210      8168         0         0         0         0         0         0         0         0         0         0         0 
dram[2]:      5428      5432      6253      6261         0         0         0         0         0         0         0         0         0         0         0         0 
dram[3]:      5428      5432      6236      6296         0         0         0         0         0         0         0         0         0         0         0         0 
dram[4]:      5428      5432      6161      6216         0         0         0         0         0         0         0         0         0         0         0         0 
dram[5]:      5428      5432      6182      6198         0      6621         0         0         0         0         0         0         0         0         0         0 
average row accesses per activate:
dram[0]: 192.000000 192.000000 64.000000 56.000000  2.000000      -nan      -nan      -nan      -nan      -nan  4.000000      -nan      -nan      -nan      -nan      -nan 
dram[1]: 192.000000 192.000000 64.000000 57.000000  2.000000      -nan      -nan      -nan      -nan      -nan      -nan      -nan      -nan      -nan      -nan      -nan 
dram[2]: 96.000000 96.000000 41.000000 32.000000      -nan      -nan      -nan      -nan      -nan      -nan      -nan      -nan      -nan      -nan      -nan      -nan 
dram[3]: 96.000000 96.000000 41.000000 32.000000      -nan      -nan      -nan      -nan      -nan      -nan      -nan      -nan      -nan      -nan      -nan      -nan 
dram[4]: 50.000000 96.000000 32.000000 33.000000      -nan      -nan      -nan      -nan      -nan      -nan      -nan      -nan      -nan      -nan      -nan      -nan 
dram[5]: 96.000000 96.000000 32.000000 32.000000      -nan  4.000000      -nan      -nan      -nan      -nan      -nan      -nan      -nan      -nan      -nan      -nan 
average row locality = 2068/29 = 71.310349
number of total memory accesses made:
dram[0]:         0         0         0         0         0         0         0         0         0         0         0         0         0         0         0         0 
dram[1]:         0         0         0         0         0         0         0         0         0         0         0         0         0         0         0         0 
dram[2]:         0         0         0         0         0         0         0         0         0         0         0         0         0         0         0         0 
dram[3]:         0         0         0         0         0         0         0         0         0         0         0         0         0         0         0         0 
dram[4]:         0         0         0         0         0         0         0         0         0         0         0         0         0         0         0         0 
dram[5]:         0         0         0         0         0         0         0         0         0         0         0         0         0         0         0         0 
total accesses: 0
min_bank_accesses = 0!
min_chip_accesses = 0!
number of total read accesses:
dram[0]:         0         0         0         0         0         0         0         0         0         0         0         0         0         0         0         0 
dram[1]:         0         0         0         0         0         0         0         0         0         0         0         0         0         0         0         0 
dram[2]:         0         0         0         0         0         0         0         0         0         0         0         0         0         0         0         0 
dram[3]:         0         0         0         0         0         0         0         0         0         0         0         0         0         0         0         0 
dram[4]:         0         0         0         0         0         0         0         0         0         0         0         0         0         0         0         0 
dram[5]:         0         0         0         0         0         0         0         0         0         0         0         0         0         0         0         0 
total dram reads = 0
min_bank_accesses = 0!
min_chip_accesses = 0!
number of total write accesses:
dram[0]:         0         0         0         0         0         0         0         0         0         0         0         0         0         0         0         0 
dram[1]:         0         0         0         0         0         0         0         0         0         0         0         0         0         0         0         0 
dram[2]:         0         0         0         0         0         0         0         0         0         0         0         0         0         0         0         0 
dram[3]:         0         0         0         0         0         0         0         0         0         0         0         0         0         0         0         0 
dram[4]:         0         0         0         0         0         0         0         0         0         0         0         0         0         0         0         0 
dram[5]:         0         0         0         0         0         0         0         0         0         0         0         0         0         0         0         0 
total dram writes = 0
min_bank_accesses = 0!
min_chip_accesses = 0!
average mf latency per bank:
dram[0]:     none      none      none      none      none      none      none      none      none      none      none      none      none      none      none      none  
dram[1]:     none      none      none      none      none      none      none      none      none      none      none      none      none      none      none      none  
dram[2]:     none      none      none      none      none      none      none      none      none      none      none      none      none      none      none      none  
dram[3]:     none      none      none      none      none      none      none      none      none      none      none      none      none      none      none      none  
dram[4]:     none      none      none      none      none      none      none      none      none      none      none      none      none      none      none      none  
dram[5]:     none      none      none      none      none      none      none      none      none      none      none      none      none      none      none      none  
maximum mf latency per bank:
dram[0]:        306       310       248       249       237         0         0         0         0         0       238         0         0         0       126         0
dram[1]:        316       313       251       252       237         0         0         0       126         0         0         0         0         0         0         0
dram[2]:        267       264       239       240         0         0         0         0         0         0         0         0         0         0         0         0
dram[3]:        273       270       251       246         0         0         0         0         0       126         0       126         0         0         0         0
dram[4]:        263       262       242       241         0         0       126       126         0         0         0         0         0         0         0         0
dram[5]:        265       259       243       242         0       238         0         0         0         0       126         0         0         0         0       126
Memory Partition 0: 
Cache L2_bank_000:
MSHR contents

Cache L2_bank_001:
MSHR contents

In Dram Latency Queue (total = 0): 
DRAM[0]: 16 bks, busW=4 BL=8 CL=12, tRRD=6 tCCD=2, tRCD=12 tRAS=28 tRP=12 tRC=40
n_cmd=29625 n_nop=29109 n_act=6 n_pre=0 n_ref_event=0 n_req=510 n_rd=510 n_rd_L2_A=0 n_write=0 n_wr_bk=0 bw_util=0.03443
n_activity=1628 dram_eff=0.6265
bk0: 192a 29322i bk1: 192a 29332i bk2: 64a 29552i bk3: 56a 29531i bk4: 2a 29611i bk5: 0a 29622i bk6: 0a 29622i bk7: 0a 29623i bk8: 0a 29623i bk9: 0a 29624i bk10: 4a 29605i bk11: 0a 29623i bk12: 0a 29624i bk13: 0a 29626i bk14: 0a 29627i bk15: 0a 29628i 

------------------------------------------------------------------------

Row_Buffer_Locality = 0.988235
Row_Buffer_Locality_read = 0.988235
Row_Buffer_Locality_write = -nan
Bank_Level_Parallism = 1.425000
Bank_Level_Parallism_Col = 1.427790
Bank_Level_Parallism_Ready = 1.011765
write_to_read_ratio_blp_rw_average = 0.000000
GrpLevelPara = 1.427790 

BW Util details:
bwutil = 0.034430 
total_CMD = 29625 
util_bw = 1020 
Wasted_Col = 129 
Wasted_Row = 0 
Idle = 28476 

BW Util Bottlenecks: 
RCDc_limit = 65 
RCDWRc_limit = 0 
WTRc_limit = 0 
RTWc_limit = 0 
CCDLc_limit = 67 
rwq = 0 
CCDLc_limit_alone = 67 
WTRc_limit_alone = 0 
RTWc_limit_alone = 0 

Commands details: 
total_CMD = 29625 
n_nop = 29109 
Read = 510 
Write = 0 
L2_Alloc = 0 
L2_WB = 0 
n_act = 6 
n_pre = 0 
n_ref = 0 
n_req = 510 
total_req = 510 

Dual Bus Interface Util: 
issued_total_row = 6 
issued_total_col = 510 
Row_Bus_Util =  0.000203 
CoL_Bus_Util = 0.017215 
Either_Row_CoL_Bus_Util = 0.017418 
Issued_on_Two_Bus_Simul_Util = 0.000000 
issued_two_Eff = 0.000000 
queue_avg = 0.139882 


dram_util_bins: 0 0 0 0 0 0 0 0 0 0
dram_eff_bins: 0 0 0 0 0 0 0 0 0 0
mrqq: max=23 avg=0.139882
Memory Partition 1: 
Cache L2_bank_002:
MSHR contents

Cache L2_bank_003:
MSHR contents

In Dram Latency Queue (total = 0): 
DRAM[1]: 16 bks, busW=4 BL=8 CL=12, tRRD=6 tCCD=2, tRCD=12 tRAS=28 tRP=12 tRC=40
n_cmd=29625 n_nop=29113 n_act=5 n_pre=0 n_ref_event=0 n_req=507 n_rd=507 n_rd_L2_A=0 n_write=0 n_wr_bk=0 bw_util=0.03423
n_activity=1546 dram_eff=0.6559
bk0: 192a 29291i bk1: 192a 29305i bk2: 64a 29540i bk3: 57a 29527i bk4: 2a 29611i bk5: 0a 29622i bk6: 0a 29623i bk7: 0a 29624i bk8: 0a 29624i bk9: 0a 29624i bk10: 0a 29624i bk11: 0a 29625i bk12: 0a 29625i bk13: 0a 29625i bk14: 0a 29625i bk15: 0a 29627i 

------------------------------------------------------------------------

Row_Buffer_Locality = 0.990138
Row_Buffer_Locality_read = 0.990138
Row_Buffer_Locality_write = -nan
Bank_Level_Parallism = 1.406832
Bank_Level_Parallism_Col = 1.407484
Bank_Level_Parallism_Ready = 1.013807
write_to_read_ratio_blp_rw_average = 0.000000
GrpLevelPara = 1.407484 

BW Util details:
bwutil = 0.034228 
total_CMD = 29625 
util_bw = 1014 
Wasted_Col = 145 
Wasted_Row = 0 
Idle = 28466 

BW Util Bottlenecks: 
RCDc_limit = 47 
RCDWRc_limit = 0 
WTRc_limit = 0 
RTWc_limit = 0 
CCDLc_limit = 104 
rwq = 0 
CCDLc_limit_alone = 104 
WTRc_limit_alone = 0 
RTWc_limit_alone = 0 

Commands details: 
total_CMD = 29625 
n_nop = 29113 
Read = 507 
Write = 0 
L2_Alloc = 0 
L2_WB = 0 
n_act = 5 
n_pre = 0 
n_ref = 0 
n_req = 507 
total_req = 507 

Dual Bus Interface Util: 
issued_total_row = 5 
issued_total_col = 507 
Row_Bus_Util =  0.000169 
CoL_Bus_Util = 0.017114 
Either_Row_CoL_Bus_Util = 0.017283 
Issued_on_Two_Bus_Simul_Util = 0.000000 
issued_two_Eff = 0.000000 
queue_avg = 0.156692 


dram_util_bins: 0 0 0 0 0 0 0 0 0 0
dram_eff_bins: 0 0 0 0 0 0 0 0 0 0
mrqq: max=24 avg=0.156692
Memory Partition 2: 
Cache L2_bank_004:
MSHR contents

Cache L2_bank_005:
MSHR contents

In Dram Latency Queue (total = 0): 
DRAM[2]: 16 bks, busW=4 BL=8 CL=12, tRRD=6 tCCD=2, tRCD=12 tRAS=28 tRP=12 tRC=40
n_cmd=29625 n_nop=29356 n_act=4 n_pre=0 n_ref_event=0 n_req=265 n_rd=265 n_rd_L2_A=0 n_write=0 n_wr_bk=0 bw_util=0.01789
n_activity=969 dram_eff=0.547
bk0: 96a 29572i bk1: 96a 29572i bk2: 41a 29599i bk3: 32a 29597i bk4: 0a 29623i bk5: 0a 29624i bk6: 0a 29624i bk7: 0a 29624i bk8: 0a 29624i bk9: 0a 29625i bk10: 0a 29625i bk11: 0a 29625i bk12: 0a 29625i bk13: 0a 29625i bk14: 0a 29625i bk15: 0a 29626i 

------------------------------------------------------------------------

Row_Buffer_Locality = 0.984906
Row_Buffer_Locality_read = 0.984906
Row_Buffer_Locality_write = -nan
Bank_Level_Parallism = 1.086514
Bank_Level_Parallism_Col = 1.082051
Bank_Level_Parallism_Ready = 1.007547
write_to_read_ratio_blp_rw_average = 0.000000
GrpLevelPara = 1.082051 

BW Util details:
bwutil = 0.017890 
total_CMD = 29625 
util_bw = 530 
Wasted_Col = 70 
Wasted_Row = 0 
Idle = 29025 

BW Util Bottlenecks: 
RCDc_limit = 34 
RCDWRc_limit = 0 
WTRc_limit = 0 
RTWc_limit = 0 
CCDLc_limit = 42 
rwq = 0 
CCDLc_limit_alone = 42 
WTRc_limit_alone = 0 
RTWc_limit_alone = 0 

Commands details: 
total_CMD = 29625 
n_nop = 29356 
Read = 265 
Write = 0 
L2_Alloc = 0 
L2_WB = 0 
n_act = 4 
n_pre = 0 
n_ref = 0 
n_req = 265 
total_req = 265 

Dual Bus Interface Util: 
issued_total_row = 4 
issued_total_col = 265 
Row_Bus_Util =  0.000135 
CoL_Bus_Util = 0.008945 
Either_Row_CoL_Bus_Util = 0.009080 
Issued_on_Two_Bus_Simul_Util = 0.000000 
issued_two_Eff = 0.000000 
queue_avg = 0.009418 


dram_util_bins: 0 0 0 0 0 0 0 0 0 0
dram_eff_bins: 0 0 0 0 0 0 0 0 0 0
mrqq: max=4 avg=0.00941772
Memory Partition 3: 
Cache L2_bank_006:
MSHR contents

Cache L2_bank_007:
MSHR contents

In Dram Latency Queue (total = 0): 
DRAM[3]: 16 bks, busW=4 BL=8 CL=12, tRRD=6 tCCD=2, tRCD=12 tRAS=28 tRP=12 tRC=40
n_cmd=29625 n_nop=29356 n_act=4 n_pre=0 n_ref_event=0 n_req=265 n_rd=265 n_rd_L2_A=0 n_write=0 n_wr_bk=0 bw_util=0.01789
n_activity=1031 dram_eff=0.5141
bk0: 96a 29593i bk1: 96a 29592i bk2: 41a 29582i bk3: 32a 29587i bk4: 0a 29623i bk5: 0a 29624i bk6: 0a 29624i bk7: 0a 29624i bk8: 0a 29624i bk9: 0a 29624i bk10: 0a 29624i bk11: 0a 29625i bk12: 0a 29625i bk13: 0a 29626i bk14: 0a 29626i bk15: 0a 29626i 

------------------------------------------------------------------------

Row_Buffer_Locality = 0.984906
Row_Buffer_Locality_read = 0.984906
Row_Buffer_Locality_write = -nan
Bank_Level_Parallism = 1.089474
Bank_Level_Parallism_Col = 1.090425
Bank_Level_Parallism_Ready = 1.007547
write_to_read_ratio_blp_rw_average = 0.000000
GrpLevelPara = 1.090425 

BW Util details:
bwutil = 0.017890 
total_CMD = 29625 
util_bw = 530 
Wasted_Col = 65 
Wasted_Row = 0 
Idle = 29030 

BW Util Bottlenecks: 
RCDc_limit = 41 
RCDWRc_limit = 0 
WTRc_limit = 0 
RTWc_limit = 0 
CCDLc_limit = 27 
rwq = 0 
CCDLc_limit_alone = 27 
WTRc_limit_alone = 0 
RTWc_limit_alone = 0 

Commands details: 
total_CMD = 29625 
n_nop = 29356 
Read = 265 
Write = 0 
L2_Alloc = 0 
L2_WB = 0 
n_act = 4 
n_pre = 0 
n_ref = 0 
n_req = 265 
total_req = 265 

Dual Bus Interface Util: 
issued_total_row = 4 
issued_total_col = 265 
Row_Bus_Util =  0.000135 
CoL_Bus_Util = 0.008945 
Either_Row_CoL_Bus_Util = 0.009080 
Issued_on_Two_Bus_Simul_Util = 0.000000 
issued_two_Eff = 0.000000 
queue_avg = 0.007460 


dram_util_bins: 0 0 0 0 0 0 0 0 0 0
dram_eff_bins: 0 0 0 0 0 0 0 0 0 0
mrqq: max=4 avg=0.00745992
Memory Partition 4: 
Cache L2_bank_008:
MSHR contents

Cache L2_bank_009:
MSHR contents

In Dram Latency Queue (total = 0): 
DRAM[4]: 16 bks, busW=4 BL=8 CL=12, tRRD=6 tCCD=2, tRCD=12 tRAS=28 tRP=12 tRC=40
n_cmd=29625 n_nop=29358 n_act=5 n_pre=1 n_ref_event=0 n_req=261 n_rd=261 n_rd_L2_A=0 n_write=0 n_wr_bk=0 bw_util=0.01762
n_activity=910 dram_eff=0.5736
bk0: 100a 29456i bk1: 96a 29442i bk2: 32a 29591i bk3: 33a 29589i bk4: 0a 29622i bk5: 0a 29622i bk6: 0a 29622i bk7: 0a 29622i bk8: 0a 29622i bk9: 0a 29625i bk10: 0a 29625i bk11: 0a 29626i bk12: 0a 29626i bk13: 0a 29628i bk14: 0a 29628i bk15: 0a 29628i 

------------------------------------------------------------------------

Row_Buffer_Locality = 0.980843
Row_Buffer_Locality_read = 0.980843
Row_Buffer_Locality_write = -nan
Bank_Level_Parallism = 1.259668
Bank_Level_Parallism_Col = 1.268061
Bank_Level_Parallism_Ready = 1.011494
write_to_read_ratio_blp_rw_average = 0.000000
GrpLevelPara = 1.268061 

BW Util details:
bwutil = 0.017620 
total_CMD = 29625 
util_bw = 522 
Wasted_Col = 116 
Wasted_Row = 12 
Idle = 28975 

BW Util Bottlenecks: 
RCDc_limit = 53 
RCDWRc_limit = 0 
WTRc_limit = 0 
RTWc_limit = 0 
CCDLc_limit = 66 
rwq = 0 
CCDLc_limit_alone = 66 
WTRc_limit_alone = 0 
RTWc_limit_alone = 0 

Commands details: 
total_CMD = 29625 
n_nop = 29358 
Read = 261 
Write = 0 
L2_Alloc = 0 
L2_WB = 0 
n_act = 5 
n_pre = 1 
n_ref = 0 
n_req = 261 
total_req = 261 

Dual Bus Interface Util: 
issued_total_row = 6 
issued_total_col = 261 
Row_Bus_Util =  0.000203 
CoL_Bus_Util = 0.008810 
Either_Row_CoL_Bus_Util = 0.009013 
Issued_on_Two_Bus_Simul_Util = 0.000000 
issued_two_Eff = 0.000000 
queue_avg = 0.043038 


dram_util_bins: 0 0 0 0 0 0 0 0 0 0
dram_eff_bins: 0 0 0 0 0 0 0 0 0 0
mrqq: max=9 avg=0.043038
Memory Partition 5: 
Cache L2_bank_010:
MSHR contents

Cache L2_bank_011:
MSHR contents

In Dram Latency Queue (total = 0): 
DRAM[5]: 16 bks, busW=4 BL=8 CL=12, tRRD=6 tCCD=2, tRCD=12 tRAS=28 tRP=12 tRC=40
n_cmd=29625 n_nop=29360 n_act=5 n_pre=0 n_ref_event=0 n_req=260 n_rd=260 n_rd_L2_A=0 n_write=0 n_wr_bk=0 bw_util=0.01755
n_activity=953 dram_eff=0.5456
bk0: 96a 29553i bk1: 96a 29527i bk2: 32a 29591i bk3: 32a 29573i bk4: 0a 29624i bk5: 4a 29606i bk6: 0a 29623i bk7: 0a 29623i bk8: 0a 29623i bk9: 0a 29623i bk10: 0a 29623i bk11: 0a 29624i bk12: 0a 29625i bk13: 0a 29626i bk14: 0a 29626i bk15: 0a 29626i 

------------------------------------------------------------------------

Row_Buffer_Locality = 0.980769
Row_Buffer_Locality_read = 0.980769
Row_Buffer_Locality_write = -nan
Bank_Level_Parallism = 1.221219
Bank_Level_Parallism_Col = 1.223744
Bank_Level_Parallism_Ready = 1.011539
write_to_read_ratio_blp_rw_average = 0.000000
GrpLevelPara = 1.223744 

BW Util details:
bwutil = 0.017553 
total_CMD = 29625 
util_bw = 520 
Wasted_Col = 88 
Wasted_Row = 0 
Idle = 29017 

BW Util Bottlenecks: 
RCDc_limit = 53 
RCDWRc_limit = 0 
WTRc_limit = 0 
RTWc_limit = 0 
CCDLc_limit = 38 
rwq = 0 
CCDLc_limit_alone = 38 
WTRc_limit_alone = 0 
RTWc_limit_alone = 0 

Commands details: 
total_CMD = 29625 
n_nop = 29360 
Read = 260 
Write = 0 
L2_Alloc = 0 
L2_WB = 0 
n_act = 5 
n_pre = 0 
n_ref = 0 
n_req = 260 
total_req = 260 

Dual Bus Interface Util: 
issued_total_row = 5 
issued_total_col = 260 
Row_Bus_Util =  0.000169 
CoL_Bus_Util = 0.008776 
Either_Row_CoL_Bus_Util = 0.008945 
Issued_on_Two_Bus_Simul_Util = 0.000000 
issued_two_Eff = 0.000000 
queue_avg = 0.019882 


dram_util_bins: 0 0 0 0 0 0 0 0 0 0
dram_eff_bins: 0 0 0 0 0 0 0 0 0 0
mrqq: max=7 avg=0.0198819

========= L2 cache stats =========
L2_cache_bank[0]: Access = 291, Miss = 291, Miss_rate = 1.000, Pending_hits = 0, Reservation_fails = 0
L2_cache_bank[1]: Access = 230, Miss = 222, Miss_rate = 0.965, Pending_hits = 0, Reservation_fails = 0
L2_cache_bank[2]: Access = 290, Miss = 288, Miss_rate = 0.993, Pending_hits = 0, Reservation_fails = 0
L2_cache_bank[3]: Access = 222, Miss = 220, Miss_rate = 0.991, Pending_hits = 0, Reservation_fails = 0
L2_cache_bank[4]: Access = 145, Miss = 145, Miss_rate = 1.000, Pending_hits = 0, Reservation_fails = 0
L2_cache_bank[5]: Access = 121, Miss = 120, Miss_rate = 0.992, Pending_hits = 0, Reservation_fails = 0
L2_cache_bank[6]: Access = 145, Miss = 145, Miss_rate = 1.000, Pending_hits = 0, Reservation_fails = 0
L2_cache_bank[7]: Access = 122, Miss = 122, Miss_rate = 1.000, Pending_hits = 0, Reservation_fails = 0
L2_cache_bank[8]: Access = 149, Miss = 149, Miss_rate = 1.000, Pending_hits = 0, Reservation_fails = 0
L2_cache_bank[9]: Access = 114, Miss = 114, Miss_rate = 1.000, Pending_hits = 0, Reservation_fails = 0
L2_cache_bank[10]: Access = 149, Miss = 148, Miss_rate = 0.993, Pending_hits = 0, Reservation_fails = 0
L2_cache_bank[11]: Access = 116, Miss = 114, Miss_rate = 0.983, Pending_hits = 0, Reservation_fails = 0
L2_total_cache_accesses = 2094
L2_total_cache_misses = 2078
L2_total_cache_miss_rate = 0.9924
L2_total_cache_pending_hits = 0
L2_total_cache_reservation_fails = 0
L2_total_cache_breakdown:
	L2_cache_stats_breakdown[GLOBAL_ACC_R][HIT] = 0
	L2_cache_stats_breakdown[GLOBAL_ACC_R][HIT_RESERVED] = 0
	L2_cache_stats_breakdown[GLOBAL_ACC_R][MISS] = 523
	L2_cache_stats_breakdown[GLOBAL_ACC_R][RESERVATION_FAIL] = 0
	L2_cache_stats_breakdown[GLOBAL_ACC_R][SECTOR_MISS] = 1545
	L2_cache_stats_breakdown[GLOBAL_ACC_R][MSHR_HIT] = 0
	L2_cache_stats_breakdown[LOCAL_ACC_R][HIT] = 0
	L2_cache_stats_breakdown[LOCAL_ACC_R][HIT_RESERVED] = 0
	L2_cache_stats_breakdown[LOCAL_ACC_R][MISS] = 0
	L2_cache_stats_breakdown[LOCAL_ACC_R][RESERVATION_FAIL] = 0
	L2_cache_stats_breakdown[LOCAL_ACC_R][SECTOR_MISS] = 0
	L2_cache_stats_breakdown[LOCAL_ACC_R][MSHR_HIT] = 0
	L2_cache_stats_breakdown[CONST_ACC_R][HIT] = 0
	L2_cache_stats_breakdown[CONST_ACC_R][HIT_RESERVED] = 0
	L2_cache_stats_breakdown[CONST_ACC_R][MISS] = 0
	L2_cache_stats_breakdown[CONST_ACC_R][RESERVATION_FAIL] = 0
	L2_cache_stats_breakdown[CONST_ACC_R][SECTOR_MISS] = 0
	L2_cache_stats_breakdown[CONST_ACC_R][MSHR_HIT] = 0
	L2_cache_stats_breakdown[TEXTURE_ACC_R][HIT] = 0
	L2_cache_stats_breakdown[TEXTURE_ACC_R][HIT_RESERVED] = 0
	L2_cache_stats_breakdown[TEXTURE_ACC_R][MISS] = 0
	L2_cache_stats_breakdown[TEXTURE_ACC_R][RESERVATION_FAIL] = 0
	L2_cache_stats_breakdown[TEXTURE_ACC_R][SECTOR_MISS] = 0
	L2_cache_stats_breakdown[TEXTURE_ACC_R][MSHR_HIT] = 0
	L2_cache_stats_breakdown[GLOBAL_ACC_W][HIT] = 16
	L2_cache_stats_breakdown[GLOBAL_ACC_W][HIT_RESERVED] = 0
	L2_cache_stats_breakdown[GLOBAL_ACC_W][MISS] = 10
	L2_cache_stats_breakdown[GLOBAL_ACC_W][RESERVATION_FAIL] = 0
	L2_cache_stats_breakdown[GLOBAL_ACC_W][SECTOR_MISS] = 0
	L2_cache_stats_breakdown[GLOBAL_ACC_W][MSHR_HIT] = 0
	L2_cache_stats_breakdown[LOCAL_ACC_W][HIT] = 0
	L2_cache_stats_breakdown[LOCAL_ACC_W][HIT_RESERVED] = 0
	L2_cache_stats_breakdown[LOCAL_ACC_W][MISS] = 0
	L2_cache_stats_breakdown[LOCAL_ACC_W][RESERVATION_FAIL] = 0
	L2_cache_stats_breakdown[LOCAL_ACC_W][SECTOR_MISS] = 0
	L2_cache_stats_breakdown[LOCAL_ACC_W][MSHR_HIT] = 0
	L2_cache_stats_breakdown[L1_WRBK_ACC][HIT] = 0
	L2_cache_stats_breakdown[L1_WRBK_ACC][HIT_RESERVED] = 0
	L2_cache_stats_breakdown[L1_WRBK_ACC][MISS] = 0
	L2_cache_stats_breakdown[L1_WRBK_ACC][RESERVATION_FAIL] = 0
	L2_cache_stats_breakdown[L1_WRBK_ACC][SECTOR_MISS] = 0
	L2_cache_stats_breakdown[L1_WRBK_ACC][MSHR_HIT] = 0
	L2_cache_stats_breakdown[L2_WRBK_ACC][HIT] = 0
	L2_cache_stats_breakdown[L2_WRBK_ACC][HIT_RESERVED] = 0
	L2_cache_stats_breakdown[L2_WRBK_ACC][MISS] = 0
	L2_cache_stats_breakdown[L2_WRBK_ACC][RESERVATION_FAIL] = 0
	L2_cache_stats_breakdown[L2_WRBK_ACC][SECTOR_MISS] = 0
	L2_cache_stats_breakdown[L2_WRBK_ACC][MSHR_HIT] = 0
	L2_cache_stats_breakdown[INST_ACC_R][HIT] = 0
	L2_cache_stats_breakdown[INST_ACC_R][HIT_RESERVED] = 0
	L2_cache_stats_breakdown[INST_ACC_R][MISS] = 0
	L2_cache_stats_breakdown[INST_ACC_R][RESERVATION_FAIL] = 0
	L2_cache_stats_breakdown[INST_ACC_R][SECTOR_MISS] = 0
	L2_cache_stats_breakdown[INST_ACC_R][MSHR_HIT] = 0
	L2_cache_stats_breakdown[L1_WR_ALLOC_R][HIT] = 0
	L2_cache_stats_breakdown[L1_WR_ALLOC_R][HIT_RESERVED] = 0
	L2_cache_stats_breakdown[L1_WR_ALLOC_R][MISS] = 0
	L2_cache_stats_breakdown[L1_WR_ALLOC_R][RESERVATION_FAIL] = 0
	L2_cache_stats_breakdown[L1_WR_ALLOC_R][SECTOR_MISS] = 0
	L2_cache_stats_breakdown[L1_WR_ALLOC_R][MSHR_HIT] = 0
	L2_cache_stats_breakdown[L2_WR_ALLOC_R][HIT] = 0
	L2_cache_stats_breakdown[L2_WR_ALLOC_R][HIT_RESERVED] = 0
	L2_cache_stats_breakdown[L2_WR_ALLOC_R][MISS] = 0
	L2_cache_stats_breakdown[L2_WR_ALLOC_R][RESERVATION_FAIL] = 0
	L2_cache_stats_breakdown[L2_WR_ALLOC_R][SECTOR_MISS] = 0
	L2_cache_stats_breakdown[L2_WR_ALLOC_R][MSHR_HIT] = 0
	L2_cache_stats_breakdown[GLOBAL_ACC_R][TOTAL_ACCESS] = 2068
	L2_cache_stats_breakdown[GLOBAL_ACC_W][TOTAL_ACCESS] = 26
L2_total_cache_reservation_fail_breakdown:
L2_cache_data_port_util = 0.000
L2_cache_fill_port_util = 0.018

icnt_total_pkts_mem_to_simt=2094
icnt_total_pkts_simt_to_mem=549
LD_mem_lat_dist  0 0 0 0 0 0 0 0 0 0 0 0 0 0 0 0 0 0 0 0 0 0 0 0 0 0 0
ST_mem_lat_dist  0 0 0 0 0 0 0 0 0 0 0 0 0 0 0 0 0 0 0 0 0 0 0 0 0 0 0
----------------------------Interconnect-DETAILS--------------------------------
Req_Network_injected_packets_num = 549
Req_Network_cycles = 9581
Req_Network_injected_packets_per_cycle =       0.0573 
Req_Network_conflicts_per_cycle =       0.0234
Req_Network_conflicts_per_cycle_util =       0.7111
Req_Bank_Level_Parallism =       1.7429
Req_Network_in_buffer_full_per_cycle =       0.0000
Req_Network_in_buffer_avg_util =       0.0017
Req_Network_out_buffer_full_per_cycle =       0.0000
Req_Network_out_buffer_avg_util =       0.0048

Reply_Network_injected_packets_num = 2094
Reply_Network_cycles = 9581
Reply_Network_injected_packets_per_cycle =        0.2186
Reply_Network_conflicts_per_cycle =        0.0273
Reply_Network_conflicts_per_cycle_util =       0.3940
Reply_Bank_Level_Parallism =       3.1489
Reply_Network_in_buffer_full_per_cycle =       0.0000
Reply_Network_in_buffer_avg_util =       0.0278
Reply_Network_out_buffer_full_per_cycle =       0.0000
Reply_Network_out_buffer_avg_util =       0.0146
----------------------------END-of-Interconnect-DETAILS-------------------------


gpgpu_simulation_time = 0 days, 0 hrs, 0 min, 1 sec (1 sec)
gpgpu_simulation_rate = 786680 (inst/sec)
gpgpu_simulation_rate = 9581 (cycle/sec)
gpgpu_silicon_slowdown = 118150x
launching memcpy command : MemcpyHtoD,0x00007edd61660000,1
Processing kernel ./util/tracer_nvbit/BFS_traces/kernel-2-ctx_0x38a97040.traceg.xz
-kernel name = _Z6KernelP4NodePiPbS2_S1_S2_i
-kernel id = 2
-grid dim = (256,1,1)
-block dim = (256,1,1)
-shmem = 0
-nregs = 23
-binary version = 86
-cuda stream id = 0
-shmem base_addr = 0x00007edd79000000
-local mem base_addr = 0x00007edd77000000
-nvbit version = 1.7.6
-accelsim tracer version = 5
-enable lineinfo = 0
Header info loaded for kernel command : ./util/tracer_nvbit/BFS_traces/kernel-2-ctx_0x38a97040.traceg.xz
launching kernel name: _Z6KernelP4NodePiPbS2_S1_S2_i uid: 2 cuda_stream_id: 0
GPGPU-Sim uArch: Shader 8 bind to kernel 2 '_Z6KernelP4NodePiPbS2_S1_S2_i'
thread block = 0,0,0
GPGPU-Sim uArch: Shader 9 bind to kernel 2 '_Z6KernelP4NodePiPbS2_S1_S2_i'
thread block = 1,0,0
GPGPU-Sim uArch: Shader 10 bind to kernel 2 '_Z6KernelP4NodePiPbS2_S1_S2_i'
thread block = 2,0,0
GPGPU-Sim uArch: Shader 11 bind to kernel 2 '_Z6KernelP4NodePiPbS2_S1_S2_i'
thread block = 3,0,0
GPGPU-Sim uArch: Shader 12 bind to kernel 2 '_Z6KernelP4NodePiPbS2_S1_S2_i'
thread block = 4,0,0
GPGPU-Sim uArch: Shader 13 bind to kernel 2 '_Z6KernelP4NodePiPbS2_S1_S2_i'
thread block = 5,0,0
GPGPU-Sim uArch: Shader 14 bind to kernel 2 '_Z6KernelP4NodePiPbS2_S1_S2_i'
thread block = 6,0,0
GPGPU-Sim uArch: Shader 0 bind to kernel 2 '_Z6KernelP4NodePiPbS2_S1_S2_i'
thread block = 7,0,0
GPGPU-Sim uArch: Shader 1 bind to kernel 2 '_Z6KernelP4NodePiPbS2_S1_S2_i'
thread block = 8,0,0
GPGPU-Sim uArch: Shader 2 bind to kernel 2 '_Z6KernelP4NodePiPbS2_S1_S2_i'
thread block = 9,0,0
GPGPU-Sim uArch: Shader 3 bind to kernel 2 '_Z6KernelP4NodePiPbS2_S1_S2_i'
thread block = 10,0,0
GPGPU-Sim uArch: Shader 4 bind to kernel 2 '_Z6KernelP4NodePiPbS2_S1_S2_i'
thread block = 11,0,0
GPGPU-Sim uArch: Shader 5 bind to kernel 2 '_Z6KernelP4NodePiPbS2_S1_S2_i'
thread block = 12,0,0
GPGPU-Sim uArch: Shader 6 bind to kernel 2 '_Z6KernelP4NodePiPbS2_S1_S2_i'
thread block = 13,0,0
GPGPU-Sim uArch: Shader 7 bind to kernel 2 '_Z6KernelP4NodePiPbS2_S1_S2_i'
thread block = 14,0,0
thread block = 15,0,0
thread block = 16,0,0
thread block = 17,0,0
thread block = 18,0,0
thread block = 19,0,0
thread block = 20,0,0
thread block = 21,0,0
thread block = 22,0,0
thread block = 23,0,0
thread block = 24,0,0
thread block = 25,0,0
thread block = 26,0,0
thread block = 27,0,0
thread block = 28,0,0
thread block = 29,0,0
thread block = 30,0,0
thread block = 31,0,0
thread block = 32,0,0
thread block = 33,0,0
thread block = 34,0,0
thread block = 35,0,0
thread block = 36,0,0
thread block = 37,0,0
thread block = 38,0,0
thread block = 39,0,0
thread block = 40,0,0
thread block = 41,0,0
thread block = 42,0,0
thread block = 43,0,0
thread block = 44,0,0
thread block = 45,0,0
thread block = 46,0,0
thread block = 47,0,0
thread block = 48,0,0
thread block = 49,0,0
thread block = 50,0,0
thread block = 51,0,0
thread block = 52,0,0
thread block = 53,0,0
thread block = 54,0,0
thread block = 55,0,0
thread block = 56,0,0
thread block = 57,0,0
thread block = 58,0,0
thread block = 59,0,0
thread block = 60,0,0
thread block = 61,0,0
thread block = 62,0,0
thread block = 63,0,0
thread block = 64,0,0
thread block = 65,0,0
thread block = 66,0,0
thread block = 67,0,0
thread block = 68,0,0
thread block = 69,0,0
thread block = 70,0,0
thread block = 71,0,0
thread block = 72,0,0
thread block = 73,0,0
thread block = 74,0,0
thread block = 75,0,0
thread block = 76,0,0
thread block = 77,0,0
thread block = 78,0,0
thread block = 79,0,0
thread block = 80,0,0
thread block = 81,0,0
thread block = 82,0,0
thread block = 83,0,0
thread block = 84,0,0
thread block = 85,0,0
thread block = 86,0,0
thread block = 87,0,0
thread block = 88,0,0
thread block = 89,0,0
thread block = 90,0,0
thread block = 91,0,0
thread block = 92,0,0
thread block = 93,0,0
thread block = 94,0,0
thread block = 95,0,0
thread block = 96,0,0
thread block = 97,0,0
thread block = 98,0,0
thread block = 99,0,0
thread block = 100,0,0
thread block = 101,0,0
thread block = 102,0,0
thread block = 103,0,0
thread block = 104,0,0
thread block = 105,0,0
thread block = 106,0,0
thread block = 107,0,0
thread block = 108,0,0
thread block = 109,0,0
thread block = 110,0,0
thread block = 111,0,0
thread block = 112,0,0
thread block = 113,0,0
thread block = 114,0,0
thread block = 115,0,0
thread block = 116,0,0
thread block = 117,0,0
thread block = 118,0,0
thread block = 119,0,0
thread block = 120,0,0
thread block = 121,0,0
thread block = 122,0,0
thread block = 123,0,0
thread block = 124,0,0
thread block = 125,0,0
thread block = 126,0,0
thread block = 127,0,0
thread block = 128,0,0
thread block = 129,0,0
thread block = 130,0,0
thread block = 131,0,0
thread block = 132,0,0
thread block = 133,0,0
thread block = 134,0,0
thread block = 135,0,0
thread block = 136,0,0
thread block = 137,0,0
thread block = 138,0,0
thread block = 139,0,0
thread block = 140,0,0
thread block = 141,0,0
thread block = 142,0,0
thread block = 143,0,0
thread block = 144,0,0
thread block = 145,0,0
thread block = 146,0,0
thread block = 147,0,0
thread block = 148,0,0
thread block = 149,0,0
thread block = 150,0,0
thread block = 151,0,0
thread block = 152,0,0
thread block = 153,0,0
thread block = 154,0,0
thread block = 155,0,0
thread block = 156,0,0
thread block = 157,0,0
thread block = 158,0,0
thread block = 159,0,0
thread block = 160,0,0
thread block = 161,0,0
thread block = 162,0,0
thread block = 163,0,0
thread block = 164,0,0
thread block = 165,0,0
thread block = 166,0,0
thread block = 167,0,0
thread block = 168,0,0
thread block = 169,0,0
thread block = 170,0,0
thread block = 171,0,0
thread block = 172,0,0
thread block = 173,0,0
thread block = 174,0,0
thread block = 175,0,0
thread block = 176,0,0
thread block = 177,0,0
thread block = 178,0,0
thread block = 179,0,0
thread block = 180,0,0
thread block = 181,0,0
thread block = 182,0,0
thread block = 183,0,0
thread block = 184,0,0
thread block = 185,0,0
thread block = 186,0,0
thread block = 187,0,0
thread block = 188,0,0
thread block = 189,0,0
thread block = 190,0,0
thread block = 191,0,0
thread block = 192,0,0
thread block = 193,0,0
thread block = 194,0,0
thread block = 195,0,0
thread block = 196,0,0
thread block = 197,0,0
thread block = 198,0,0
thread block = 199,0,0
thread block = 200,0,0
thread block = 201,0,0
thread block = 202,0,0
thread block = 203,0,0
thread block = 204,0,0
thread block = 205,0,0
thread block = 206,0,0
thread block = 207,0,0
thread block = 208,0,0
thread block = 209,0,0
thread block = 210,0,0
thread block = 211,0,0
thread block = 212,0,0
thread block = 213,0,0
thread block = 214,0,0
thread block = 215,0,0
thread block = 216,0,0
thread block = 217,0,0
thread block = 218,0,0
thread block = 219,0,0
thread block = 220,0,0
thread block = 221,0,0
thread block = 222,0,0
thread block = 223,0,0
thread block = 224,0,0
thread block = 225,0,0
thread block = 226,0,0
thread block = 227,0,0
thread block = 228,0,0
thread block = 229,0,0
thread block = 230,0,0
thread block = 231,0,0
thread block = 232,0,0
thread block = 233,0,0
[...]
dram[4]:     none      none      none      none      none     3759346    676751    654699    660278    430861    none      none      915258   1821939    none      none  
dram[5]:     none      none      none      none     2043282   3812657   1390708   1391222    335371   1292246   1723946    none     1889477   1779760    none      none  
maximum mf latency per bank:
dram[0]:       5156      4677      4579      4510      4361      4493      4436      4533      4552      4626      4308      4478      4441      4570      4553      4553
dram[1]:       3122      3471      3021      2902      3006      2993      2896      2988      2807      2973      2885      2973      2775      3223      3029      3001
dram[2]:       2769      2753      2727      2767      1780      1993      2725      2725      2086      2696      2540      2448      2658      2532      2685      2627
dram[3]:       2555      2724      2724      2341      2361      2070      2373      2495      2378      2213      2426      2320      2427      2396      2649      2597
dram[4]:       2499      2761      2466      2303      2048      2472      2140      2537      2383      2591      2588      2431      2260      2130      2697      2741
dram[5]:       2741      2537      2257      2227      1800      2185      2678      2399      2198      2529      2478      2495      2187      2498      2704      2228
Memory Partition 0: 
Cache L2_bank_000:
MSHR contents

Cache L2_bank_001:
MSHR contents

In Dram Latency Queue (total = 0): 
DRAM[0]: 16 bks, busW=4 BL=8 CL=12, tRRD=6 tCCD=2, tRCD=12 tRAS=28 tRP=12 tRC=40
n_cmd=1718363 n_nop=1653706 n_act=8095 n_pre=8079 n_ref_event=0 n_req=47248 n_rd=44746 n_rd_L2_A=0 n_write=0 n_wr_bk=3999 bw_util=0.05673
n_activity=471852 dram_eff=0.2066
bk0: 2475a 1703225i bk1: 2505a 1702478i bk2: 2659a 1703631i bk3: 2586a 1705062i bk4: 2551a 1698985i bk5: 2421a 1701885i bk6: 2611a 1696630i bk7: 2621a 1697746i bk8: 2637a 1695221i bk9: 2661a 1693651i bk10: 3062a 1694168i bk11: 3139a 1695535i bk12: 3181a 1690847i bk13: 3213a 1689566i bk14: 3289a 1690174i bk15: 3135a 1691402i 

------------------------------------------------------------------------

Row_Buffer_Locality = 0.828670
Row_Buffer_Locality_read = 0.849394
Row_Buffer_Locality_write = 0.458034
Bank_Level_Parallism = 1.561624
Bank_Level_Parallism_Col = 1.597317
Bank_Level_Parallism_Ready = 1.239586
write_to_read_ratio_blp_rw_average = 0.215614
GrpLevelPara = 1.307356 

BW Util details:
bwutil = 0.056734 
total_CMD = 1718363 
util_bw = 97490 
Wasted_Col = 100470 
Wasted_Row = 70701 
Idle = 1449702 

BW Util Bottlenecks: 
RCDc_limit = 71132 
RCDWRc_limit = 6707 
WTRc_limit = 8899 
RTWc_limit = 28740 
CCDLc_limit = 12473 
rwq = 0 
CCDLc_limit_alone = 10408 
WTRc_limit_alone = 8598 
RTWc_limit_alone = 26976 

Commands details: 
total_CMD = 1718363 
n_nop = 1653706 
Read = 44746 
Write = 0 
L2_Alloc = 0 
L2_WB = 3999 
n_act = 8095 
n_pre = 8079 
n_ref = 0 
n_req = 47248 
total_req = 48745 

Dual Bus Interface Util: 
issued_total_row = 16174 
issued_total_col = 48745 
Row_Bus_Util =  0.009412 
CoL_Bus_Util = 0.028367 
Either_Row_CoL_Bus_Util = 0.037627 
Issued_on_Two_Bus_Simul_Util = 0.000152 
issued_two_Eff = 0.004052 
queue_avg = 0.299729 


dram_util_bins: 0 0 0 0 0 0 0 0 0 0
dram_eff_bins: 0 0 0 0 0 0 0 0 0 0
mrqq: max=62 avg=0.299729
Memory Partition 1: 
Cache L2_bank_002:
MSHR contents

Cache L2_bank_003:
MSHR contents

In Dram Latency Queue (total = 0): 
DRAM[1]: 16 bks, busW=4 BL=8 CL=12, tRRD=6 tCCD=2, tRCD=12 tRAS=28 tRP=12 tRC=40
n_cmd=1718363 n_nop=1654950 n_act=7852 n_pre=7836 n_ref_event=0 n_req=46478 n_rd=44026 n_rd_L2_A=0 n_write=0 n_wr_bk=3936 bw_util=0.05582
n_activity=445420 dram_eff=0.2154
bk0: 2547a 1701871i bk1: 2516a 1701635i bk2: 2599a 1703787i bk3: 2542a 1704994i bk4: 2502a 1702492i bk5: 2516a 1699646i bk6: 2643a 1696687i bk7: 2553a 1696894i bk8: 2533a 1697177i bk9: 2536a 1696722i bk10: 2967a 1696894i bk11: 3058a 1697192i bk12: 3213a 1691382i bk13: 3095a 1691692i bk14: 3153a 1692740i bk15: 3053a 1691830i 

------------------------------------------------------------------------

Row_Buffer_Locality = 0.831060
Row_Buffer_Locality_read = 0.852860
Row_Buffer_Locality_write = 0.439641
Bank_Level_Parallism = 1.565479
Bank_Level_Parallism_Col = 1.580069
Bank_Level_Parallism_Ready = 1.248496
write_to_read_ratio_blp_rw_average = 0.211990
GrpLevelPara = 1.297185 

BW Util details:
bwutil = 0.055823 
total_CMD = 1718363 
util_bw = 95924 
Wasted_Col = 96619 
Wasted_Row = 65837 
Idle = 1459983 

BW Util Bottlenecks: 
RCDc_limit = 67987 
RCDWRc_limit = 6849 
WTRc_limit = 9557 
RTWc_limit = 25871 
CCDLc_limit = 12261 
rwq = 0 
CCDLc_limit_alone = 10505 
WTRc_limit_alone = 9223 
RTWc_limit_alone = 24449 

Commands details: 
total_CMD = 1718363 
n_nop = 1654950 
Read = 44026 
Write = 0 
L2_Alloc = 0 
L2_WB = 3936 
n_act = 7852 
n_pre = 7836 
n_ref = 0 
n_req = 46478 
total_req = 47962 

Dual Bus Interface Util: 
issued_total_row = 15688 
issued_total_col = 47962 
Row_Bus_Util =  0.009130 
CoL_Bus_Util = 0.027911 
Either_Row_CoL_Bus_Util = 0.036903 
Issued_on_Two_Bus_Simul_Util = 0.000138 
issued_two_Eff = 0.003737 
queue_avg = 0.239088 


dram_util_bins: 0 0 0 0 0 0 0 0 0 0
dram_eff_bins: 0 0 0 0 0 0 0 0 0 0
mrqq: max=56 avg=0.239088
Memory Partition 2: 
Cache L2_bank_004:
MSHR contents

Cache L2_bank_005:
MSHR contents

In Dram Latency Queue (total = 0): 
DRAM[2]: 16 bks, busW=4 BL=8 CL=12, tRRD=6 tCCD=2, tRCD=12 tRAS=28 tRP=12 tRC=40
n_cmd=1718363 n_nop=1701968 n_act=1451 n_pre=1435 n_ref_event=0 n_req=13499 n_rd=13484 n_rd_L2_A=0 n_write=0 n_wr_bk=30 bw_util=0.01573
n_activity=131836 dram_eff=0.205
bk0: 757a 1716087i bk1: 756a 1716062i bk2: 784a 1715773i bk3: 760a 1715779i bk4: 788a 1715523i bk5: 825a 1715371i bk6: 763a 1715858i bk7: 790a 1715522i bk8: 841a 1714931i bk9: 832a 1715060i bk10: 872a 1716196i bk11: 883a 1716026i bk12: 924a 1715645i bk13: 975a 1715770i bk14: 956a 1715593i bk15: 978a 1715752i 

------------------------------------------------------------------------

Row_Buffer_Locality = 0.892511
Row_Buffer_Locality_read = 0.893429
Row_Buffer_Locality_write = 0.066667
Bank_Level_Parallism = 1.101090
Bank_Level_Parallism_Col = 1.073270
Bank_Level_Parallism_Ready = 1.022081
write_to_read_ratio_blp_rw_average = 0.009280
GrpLevelPara = 1.053816 

BW Util details:
bwutil = 0.015729 
total_CMD = 1718363 
util_bw = 27028 
Wasted_Col = 17858 
Wasted_Row = 15013 
Idle = 1658464 

BW Util Bottlenecks: 
RCDc_limit = 16046 
RCDWRc_limit = 70 
WTRc_limit = 72 
RTWc_limit = 181 
CCDLc_limit = 2196 
rwq = 0 
CCDLc_limit_alone = 2178 
WTRc_limit_alone = 68 
RTWc_limit_alone = 167 

Commands details: 
total_CMD = 1718363 
n_nop = 1701968 
Read = 13484 
Write = 0 
L2_Alloc = 0 
L2_WB = 30 
n_act = 1451 
n_pre = 1435 
n_ref = 0 
n_req = 13499 
total_req = 13514 

Dual Bus Interface Util: 
issued_total_row = 2886 
issued_total_col = 13514 
Row_Bus_Util =  0.001680 
CoL_Bus_Util = 0.007864 
Either_Row_CoL_Bus_Util = 0.009541 
Issued_on_Two_Bus_Simul_Util = 0.000003 
issued_two_Eff = 0.000305 
queue_avg = 0.020896 


dram_util_bins: 0 0 0 0 0 0 0 0 0 0
dram_eff_bins: 0 0 0 0 0 0 0 0 0 0
mrqq: max=10 avg=0.0208961
Memory Partition 3: 
Cache L2_bank_006:
MSHR contents

Cache L2_bank_007:
MSHR contents

In Dram Latency Queue (total = 0): 
DRAM[3]: 16 bks, busW=4 BL=8 CL=12, tRRD=6 tCCD=2, tRCD=12 tRAS=28 tRP=12 tRC=40
n_cmd=1718363 n_nop=1702044 n_act=1443 n_pre=1427 n_ref_event=0 n_req=13455 n_rd=13449 n_rd_L2_A=0 n_write=0 n_wr_bk=12 bw_util=0.01567
n_activity=130897 dram_eff=0.2057
bk0: 760a 1716203i bk1: 747a 1715676i bk2: 773a 1715610i bk3: 779a 1715716i bk4: 813a 1715400i bk5: 830a 1715463i bk6: 785a 1715663i bk7: 786a 1715779i bk8: 784a 1715600i bk9: 795a 1715135i bk10: 882a 1715686i bk11: 902a 1716132i bk12: 941a 1716192i bk13: 943a 1716363i bk14: 957a 1715519i bk15: 972a 1715353i 

------------------------------------------------------------------------

Row_Buffer_Locality = 0.892754
Row_Buffer_Locality_read = 0.893152
Row_Buffer_Locality_write = 0.000000
Bank_Level_Parallism = 1.096894
Bank_Level_Parallism_Col = 1.071845
Bank_Level_Parallism_Ready = 1.024618
write_to_read_ratio_blp_rw_average = 0.002442
GrpLevelPara = 1.056921 

BW Util details:
bwutil = 0.015667 
total_CMD = 1718363 
util_bw = 26922 
Wasted_Col = 17552 
Wasted_Row = 15052 
Idle = 1658837 

BW Util Bottlenecks: 
RCDc_limit = 16025 
RCDWRc_limit = 34 
WTRc_limit = 11 
RTWc_limit = 26 
CCDLc_limit = 1982 
rwq = 0 
CCDLc_limit_alone = 1982 
WTRc_limit_alone = 11 
RTWc_limit_alone = 26 

Commands details: 
total_CMD = 1718363 
n_nop = 1702044 
Read = 13449 
Write = 0 
L2_Alloc = 0 
L2_WB = 12 
n_act = 1443 
n_pre = 1427 
n_ref = 0 
n_req = 13455 
total_req = 13461 

Dual Bus Interface Util: 
issued_total_row = 2870 
issued_total_col = 13461 
Row_Bus_Util =  0.001670 
CoL_Bus_Util = 0.007834 
Either_Row_CoL_Bus_Util = 0.009497 
Issued_on_Two_Bus_Simul_Util = 0.000007 
issued_two_Eff = 0.000735 
queue_avg = 0.020062 


dram_util_bins: 0 0 0 0 0 0 0 0 0 0
dram_eff_bins: 0 0 0 0 0 0 0 0 0 0
mrqq: max=12 avg=0.0200615
Memory Partition 4: 
Cache L2_bank_008:
MSHR contents

Cache L2_bank_009:
MSHR contents

In Dram Latency Queue (total = 0): 
DRAM[4]: 16 bks, busW=4 BL=8 CL=12, tRRD=6 tCCD=2, tRCD=12 tRAS=28 tRP=12 tRC=40
n_cmd=1718363 n_nop=1701795 n_act=1515 n_pre=1499 n_ref_event=0 n_req=13555 n_rd=13542 n_rd_L2_A=0 n_write=0 n_wr_bk=26 bw_util=0.01579
n_activity=132669 dram_eff=0.2045
bk0: 780a 1715535i bk1: 781a 1715670i bk2: 773a 1715555i bk3: 792a 1715066i bk4: 811a 1715199i bk5: 820a 1714914i bk6: 769a 1715640i bk7: 774a 1715580i bk8: 779a 1715619i bk9: 812a 1715360i bk10: 865a 1715404i bk11: 897a 1716366i bk12: 945a 1715962i bk13: 986a 1715753i bk14: 976a 1715541i bk15: 982a 1715617i 

------------------------------------------------------------------------

Row_Buffer_Locality = 0.888233
Row_Buffer_Locality_read = 0.888938
Row_Buffer_Locality_write = 0.153846
Bank_Level_Parallism = 1.109578
Bank_Level_Parallism_Col = 1.080350
Bank_Level_Parallism_Ready = 1.028620
write_to_read_ratio_blp_rw_average = 0.004904
GrpLevelPara = 1.061936 

BW Util details:
bwutil = 0.015792 
total_CMD = 1718363 
util_bw = 27136 
Wasted_Col = 18470 
Wasted_Row = 15638 
Idle = 1657119 

BW Util Bottlenecks: 
RCDc_limit = 16795 
RCDWRc_limit = 70 
WTRc_limit = 68 
RTWc_limit = 79 
CCDLc_limit = 2206 
rwq = 0 
CCDLc_limit_alone = 2206 
WTRc_limit_alone = 68 
RTWc_limit_alone = 79 

Commands details: 
total_CMD = 1718363 
n_nop = 1701795 
Read = 13542 
Write = 0 
L2_Alloc = 0 
L2_WB = 26 
n_act = 1515 
n_pre = 1499 
n_ref = 0 
n_req = 13555 
total_req = 13568 

Dual Bus Interface Util: 
issued_total_row = 3014 
issued_total_col = 13568 
Row_Bus_Util =  0.001754 
CoL_Bus_Util = 0.007896 
Either_Row_CoL_Bus_Util = 0.009642 
Issued_on_Two_Bus_Simul_Util = 0.000008 
issued_two_Eff = 0.000845 
queue_avg = 0.021709 


dram_util_bins: 0 0 0 0 0 0 0 0 0 0
dram_eff_bins: 0 0 0 0 0 0 0 0 0 0
mrqq: max=11 avg=0.021709
Memory Partition 5: 
Cache L2_bank_010:
MSHR contents

Cache L2_bank_011:
MSHR contents

In Dram Latency Queue (total = 0): 
DRAM[5]: 16 bks, busW=4 BL=8 CL=12, tRRD=6 tCCD=2, tRCD=12 tRAS=28 tRP=12 tRC=40
n_cmd=1718363 n_nop=1702113 n_act=1395 n_pre=1379 n_ref_event=0 n_req=13470 n_rd=13457 n_rd_L2_A=0 n_write=0 n_wr_bk=26 bw_util=0.01569
n_activity=128681 dram_eff=0.2096
bk0: 771a 1715884i bk1: 770a 1715734i bk2: 780a 1715623i bk3: 756a 1715809i bk4: 797a 1715277i bk5: 795a 1715184i bk6: 766a 1716083i bk7: 777a 1715549i bk8: 817a 1715685i bk9: 815a 1715632i bk10: 897a 1716017i bk11: 870a 1716112i bk12: 918a 1715995i bk13: 975a 1716421i bk14: 960a 1715773i bk15: 993a 1715617i 

------------------------------------------------------------------------

Row_Buffer_Locality = 0.896437
Row_Buffer_Locality_read = 0.897154
Row_Buffer_Locality_write = 0.153846
Bank_Level_Parallism = 1.096807
Bank_Level_Parallism_Col = 1.074085
Bank_Level_Parallism_Ready = 1.022211
write_to_read_ratio_blp_rw_average = 0.007249
GrpLevelPara = 1.059465 

BW Util details:
bwutil = 0.015693 
total_CMD = 1718363 
util_bw = 26966 
Wasted_Col = 17192 
Wasted_Row = 14521 
Idle = 1659684 

BW Util Bottlenecks: 
RCDc_limit = 15484 
RCDWRc_limit = 63 
WTRc_limit = 10 
RTWc_limit = 140 
CCDLc_limit = 2106 
rwq = 0 
CCDLc_limit_alone = 2103 
WTRc_limit_alone = 10 
RTWc_limit_alone = 137 

Commands details: 
total_CMD = 1718363 
n_nop = 1702113 
Read = 13457 
Write = 0 
L2_Alloc = 0 
L2_WB = 26 
n_act = 1395 
n_pre = 1379 
n_ref = 0 
n_req = 13470 
total_req = 13483 

Dual Bus Interface Util: 
issued_total_row = 2774 
issued_total_col = 13483 
Row_Bus_Util =  0.001614 
CoL_Bus_Util = 0.007846 
Either_Row_CoL_Bus_Util = 0.009457 
Issued_on_Two_Bus_Simul_Util = 0.000004 
issued_two_Eff = 0.000431 
queue_avg = 0.020407 


dram_util_bins: 0 0 0 0 0 0 0 0 0 0
dram_eff_bins: 0 0 0 0 0 0 0 0 0 0
mrqq: max=12 avg=0.0204072

========= L2 cache stats =========
L2_cache_bank[0]: Access = 281184, Miss = 23356, Miss_rate = 0.083, Pending_hits = 1179, Reservation_fails = 0
L2_cache_bank[1]: Access = 315253, Miss = 27355, Miss_rate = 0.087, Pending_hits = 1724, Reservation_fails = 0
L2_cache_bank[2]: Access = 281019, Miss = 23890, Miss_rate = 0.085, Pending_hits = 1381, Reservation_fails = 0
L2_cache_bank[3]: Access = 282779, Miss = 26116, Miss_rate = 0.092, Pending_hits = 1465, Reservation_fails = 0
L2_cache_bank[4]: Access = 148012, Miss = 7155, Miss_rate = 0.048, Pending_hits = 19, Reservation_fails = 0
L2_cache_bank[5]: Access = 135976, Miss = 7317, Miss_rate = 0.054, Pending_hits = 9, Reservation_fails = 0
L2_cache_bank[6]: Access = 146919, Miss = 7178, Miss_rate = 0.049, Pending_hits = 14, Reservation_fails = 0
L2_cache_bank[7]: Access = 135824, Miss = 7249, Miss_rate = 0.053, Pending_hits = 21, Reservation_fails = 0
L2_cache_bank[8]: Access = 139190, Miss = 7195, Miss_rate = 0.052, Pending_hits = 25, Reservation_fails = 0
L2_cache_bank[9]: Access = 140241, Miss = 7345, Miss_rate = 0.052, Pending_hits = 8, Reservation_fails = 0
L2_cache_bank[10]: Access = 138631, Miss = 7117, Miss_rate = 0.051, Pending_hits = 12, Reservation_fails = 0
L2_cache_bank[11]: Access = 141457, Miss = 7332, Miss_rate = 0.052, Pending_hits = 15, Reservation_fails = 0
L2_total_cache_accesses = 2286485
L2_total_cache_misses = 158605
L2_total_cache_miss_rate = 0.0694
L2_total_cache_pending_hits = 5872
L2_total_cache_reservation_fails = 0
L2_total_cache_breakdown:
	L2_cache_stats_breakdown[GLOBAL_ACC_R][HIT] = 1794389
	L2_cache_stats_breakdown[GLOBAL_ACC_R][HIT_RESERVED] = 5798
	L2_cache_stats_breakdown[GLOBAL_ACC_R][MISS] = 46397
	L2_cache_stats_breakdown[GLOBAL_ACC_R][RESERVATION_FAIL] = 0
	L2_cache_stats_breakdown[GLOBAL_ACC_R][SECTOR_MISS] = 96307
	L2_cache_stats_breakdown[GLOBAL_ACC_R][MSHR_HIT] = 5798
	L2_cache_stats_breakdown[LOCAL_ACC_R][HIT] = 0
	L2_cache_stats_breakdown[LOCAL_ACC_R][HIT_RESERVED] = 0
	L2_cache_stats_breakdown[LOCAL_ACC_R][MISS] = 0
	L2_cache_stats_breakdown[LOCAL_ACC_R][RESERVATION_FAIL] = 0
	L2_cache_stats_breakdown[LOCAL_ACC_R][SECTOR_MISS] = 0
	L2_cache_stats_breakdown[LOCAL_ACC_R][MSHR_HIT] = 0
	L2_cache_stats_breakdown[CONST_ACC_R][HIT] = 0
	L2_cache_stats_breakdown[CONST_ACC_R][HIT_RESERVED] = 0
	L2_cache_stats_breakdown[CONST_ACC_R][MISS] = 0
	L2_cache_stats_breakdown[CONST_ACC_R][RESERVATION_FAIL] = 0
	L2_cache_stats_breakdown[CONST_ACC_R][SECTOR_MISS] = 0
	L2_cache_stats_breakdown[CONST_ACC_R][MSHR_HIT] = 0
	L2_cache_stats_breakdown[TEXTURE_ACC_R][HIT] = 0
	L2_cache_stats_breakdown[TEXTURE_ACC_R][HIT_RESERVED] = 0
	L2_cache_stats_breakdown[TEXTURE_ACC_R][MISS] = 0
	L2_cache_stats_breakdown[TEXTURE_ACC_R][RESERVATION_FAIL] = 0
	L2_cache_stats_breakdown[TEXTURE_ACC_R][SECTOR_MISS] = 0
	L2_cache_stats_breakdown[TEXTURE_ACC_R][MSHR_HIT] = 0
	L2_cache_stats_breakdown[GLOBAL_ACC_W][HIT] = 327619
	L2_cache_stats_breakdown[GLOBAL_ACC_W][HIT_RESERVED] = 74
	L2_cache_stats_breakdown[GLOBAL_ACC_W][MISS] = 5224
	L2_cache_stats_breakdown[GLOBAL_ACC_W][RESERVATION_FAIL] = 0
	L2_cache_stats_breakdown[GLOBAL_ACC_W][SECTOR_MISS] = 10677
	L2_cache_stats_breakdown[GLOBAL_ACC_W][MSHR_HIT] = 0
	L2_cache_stats_breakdown[LOCAL_ACC_W][HIT] = 0
	L2_cache_stats_breakdown[LOCAL_ACC_W][HIT_RESERVED] = 0
	L2_cache_stats_breakdown[LOCAL_ACC_W][MISS] = 0
	L2_cache_stats_breakdown[LOCAL_ACC_W][RESERVATION_FAIL] = 0
	L2_cache_stats_breakdown[LOCAL_ACC_W][SECTOR_MISS] = 0
	L2_cache_stats_breakdown[LOCAL_ACC_W][MSHR_HIT] = 0
	L2_cache_stats_breakdown[L1_WRBK_ACC][HIT] = 0
	L2_cache_stats_breakdown[L1_WRBK_ACC][HIT_RESERVED] = 0
	L2_cache_stats_breakdown[L1_WRBK_ACC][MISS] = 0
	L2_cache_stats_breakdown[L1_WRBK_ACC][RESERVATION_FAIL] = 0
	L2_cache_stats_breakdown[L1_WRBK_ACC][SECTOR_MISS] = 0
	L2_cache_stats_breakdown[L1_WRBK_ACC][MSHR_HIT] = 0
	L2_cache_stats_breakdown[L2_WRBK_ACC][HIT] = 0
	L2_cache_stats_breakdown[L2_WRBK_ACC][HIT_RESERVED] = 0
	L2_cache_stats_breakdown[L2_WRBK_ACC][MISS] = 0
	L2_cache_stats_breakdown[L2_WRBK_ACC][RESERVATION_FAIL] = 0
	L2_cache_stats_breakdown[L2_WRBK_ACC][SECTOR_MISS] = 0
	L2_cache_stats_breakdown[L2_WRBK_ACC][MSHR_HIT] = 0
	L2_cache_stats_breakdown[INST_ACC_R][HIT] = 0
	L2_cache_stats_breakdown[INST_ACC_R][HIT_RESERVED] = 0
	L2_cache_stats_breakdown[INST_ACC_R][MISS] = 0
	L2_cache_stats_breakdown[INST_ACC_R][RESERVATION_FAIL] = 0
	L2_cache_stats_breakdown[INST_ACC_R][SECTOR_MISS] = 0
	L2_cache_stats_breakdown[INST_ACC_R][MSHR_HIT] = 0
	L2_cache_stats_breakdown[L1_WR_ALLOC_R][HIT] = 0
	L2_cache_stats_breakdown[L1_WR_ALLOC_R][HIT_RESERVED] = 0
	L2_cache_stats_breakdown[L1_WR_ALLOC_R][MISS] = 0
	L2_cache_stats_breakdown[L1_WR_ALLOC_R][RESERVATION_FAIL] = 0
	L2_cache_stats_breakdown[L1_WR_ALLOC_R][SECTOR_MISS] = 0
	L2_cache_stats_breakdown[L1_WR_ALLOC_R][MSHR_HIT] = 0
	L2_cache_stats_breakdown[L2_WR_ALLOC_R][HIT] = 0
	L2_cache_stats_breakdown[L2_WR_ALLOC_R][HIT_RESERVED] = 0
	L2_cache_stats_breakdown[L2_WR_ALLOC_R][MISS] = 0
	L2_cache_stats_breakdown[L2_WR_ALLOC_R][RESERVATION_FAIL] = 0
	L2_cache_stats_breakdown[L2_WR_ALLOC_R][SECTOR_MISS] = 0
	L2_cache_stats_breakdown[L2_WR_ALLOC_R][MSHR_HIT] = 0
	L2_cache_stats_breakdown[GLOBAL_ACC_R][TOTAL_ACCESS] = 1942891
	L2_cache_stats_breakdown[GLOBAL_ACC_W][TOTAL_ACCESS] = 343594
L2_total_cache_reservation_fail_breakdown:
L2_cache_data_port_util = 0.318
L2_cache_fill_port_util = 0.021

icnt_total_pkts_mem_to_simt=2286485
icnt_total_pkts_simt_to_mem=1361171
LD_mem_lat_dist  0 0 0 0 0 0 0 0 0 0 0 0 0 0 0 0 0 0 0 0 0 0 0 0 0 0 0
ST_mem_lat_dist  0 0 0 0 0 0 0 0 0 0 0 0 0 0 0 0 0 0 0 0 0 0 0 0 0 0 0
----------------------------Interconnect-DETAILS--------------------------------
Req_Network_injected_packets_num = 1361171
Req_Network_cycles = 555689
Req_Network_injected_packets_per_cycle =       2.4495 
Req_Network_conflicts_per_cycle =       3.9461
Req_Network_conflicts_per_cycle_util =       4.7516
Req_Bank_Level_Parallism =       2.9495
Req_Network_in_buffer_full_per_cycle =       0.0148
Req_Network_in_buffer_avg_util =      32.3889
Req_Network_out_buffer_full_per_cycle =       0.2048
Req_Network_out_buffer_avg_util =      25.7457

Reply_Network_injected_packets_num = 2286485
Reply_Network_cycles = 555689
Reply_Network_injected_packets_per_cycle =        4.1147
Reply_Network_conflicts_per_cycle =        2.8506
Reply_Network_conflicts_per_cycle_util =       3.3440
Reply_Bank_Level_Parallism =       4.8269
Reply_Network_in_buffer_full_per_cycle =       0.3061
Reply_Network_in_buffer_avg_util =      71.5044
Reply_Network_out_buffer_full_per_cycle =       0.0000
Reply_Network_out_buffer_avg_util =       0.2743
----------------------------END-of-Interconnect-DETAILS-------------------------


gpgpu_simulation_time = 0 days, 0 hrs, 1 min, 11 sec (71 sec)
gpgpu_simulation_rate = 226230 (inst/sec)
gpgpu_simulation_rate = 7826 (cycle/sec)
gpgpu_silicon_slowdown = 144646x
GPGPU-Sim: *** simulation thread exiting ***
GPGPU-Sim: *** exit detected ***
