Accel-Sim [build accelsim-commit-9be0e3c_modified_0.0_26-05-01-22-07-05]

        *** GPGPU-Sim Simulator Version 4.2.0  [build gpgpu-sim_git-commit-6c3cf4ff_modified_4.0] ***


GPGPU-Sim: Configuration options:

-save_embedded_ptx                      0 # saves ptx files embedded in binary as <n>.ptx
-keep                                   0 # keep intermediate files created by GPGPU-Sim when interfacing with external programs
-gpgpu_ptx_save_converted_ptxplus                    0 # Saved converted ptxplus to a file
-gpgpu_occupancy_sm_number                   86 # The SM number to pass to ptxas when getting register usage for computing GPU occupancy. This parameter is required in the config.
-ptx_opcode_latency_int           4,4,4,4,21 # Opcode latencies for integers <ADD,MAX,MUL,MAD,DIV,SHFL>Default 1,1,19,25,145,32
-ptx_opcode_latency_fp           4,4,4,4,39 # Opcode latencies for single precision floating points <ADD,MAX,MUL,MAD,DIV>Default 1,1,1,1,30
-ptx_opcode_latency_dp      64,64,64,64,330 # Opcode latencies for double precision floating points <ADD,MAX,MUL,MAD,DIV>Default 8,8,8,8,335
-ptx_opcode_latency_sfu                   21 # Opcode latencies for SFU instructionsDefault 8
-ptx_opcode_latency_tesnor                   64 # Opcode latencies for Tensor instructionsDefault 64
-ptx_opcode_initiation_int            2,2,2,2,2 # Opcode initiation intervals for integers <ADD,MAX,MUL,MAD,DIV,SHFL>Default 1,1,4,4,32,4
-ptx_opcode_initiation_fp            1,1,1,1,2 # Opcode initiation intervals for single precision floating points <ADD,MAX,MUL,MAD,DIV>Default 1,1,1,1,5
-ptx_opcode_initiation_dp      64,64,64,64,130 # Opcode initiation intervals for double precision floating points <ADD,MAX,MUL,MAD,DIV>Default 8,8,8,8,130
-ptx_opcode_initiation_sfu                    8 # Opcode initiation intervals for sfu instructionsDefault 8
-ptx_opcode_initiation_tensor                   64 # Opcode initiation intervals for tensor instructionsDefault 64
-cdp_latency         7200,8000,100,12000,1600 # CDP API latency <cudaStreamCreateWithFlags, cudaGetParameterBufferV2_init_perWarp, cudaGetParameterBufferV2_perKernel, cudaLaunchDeviceV2_init_perWarp, cudaLaunchDevicV2_perKernel>Default 7200,8000,100,12000,1600
-network_mode                           2 # Interconnection network mode
-inter_config_file                   mesh # Interconnection network config file
-icnt_in_buffer_limit                  512 # in_buffer_limit
-icnt_out_buffer_limit                  512 # out_buffer_limit
-icnt_subnets                           2 # subnets
-icnt_arbiter_algo                      1 # arbiter_algo
-icnt_verbose                           0 # inct_verbose
-icnt_grant_cycles                      1 # grant_cycles
-gpgpu_ptx_use_cuobjdump                    1 # Use cuobjdump to extract ptx and sass from binaries
-gpgpu_experimental_lib_support                    0 # Try to extract code from cuda libraries [Broken because of unknown cudaGetExportTable]
-checkpoint_option                      0 #  checkpointing flag (0 = no checkpoint)
-checkpoint_kernel                      1 #  checkpointing during execution of which kernel (1- 1st kernel)
-checkpoint_CTA                         0 #  checkpointing after # of CTA (< less than total CTA)
-resume_option                          0 #  resume flag (0 = no resume)
-resume_kernel                          0 #  Resume from which kernel (1= 1st kernel)
-resume_CTA                             0 #  resume from which CTA 
-checkpoint_CTA_t                       0 #  resume from which CTA 
-checkpoint_insn_Y                      0 #  resume from which CTA 
-gpgpu_ptx_convert_to_ptxplus                    0 # Convert SASS (native ISA) to ptxplus and run ptxplus
-gpgpu_ptx_force_max_capability                   86 # Force maximum compute capability
-gpgpu_ptx_inst_debug_to_file                    0 # Dump executed instructions' debug information to file
-gpgpu_ptx_inst_debug_file       inst_debug.txt # Executed instructions' debug output file
-gpgpu_ptx_inst_debug_thread_uid                    1 # Thread UID for executed instructions' debug output
-gpgpu_simd_model                       1 # 1 = post-dominator
-gpgpu_shader_core_pipeline              1536:32 # shader core pipeline config, i.e., {<nthread>:<warpsize>}
-gpgpu_tex_cache:l1  N:4:128:256,L:R:m:N:L,T:512:8,128:2 # per-shader L1 texture cache  (READ-ONLY) config  {<nsets>:<bsize>:<assoc>,<rep>:<wr>:<alloc>:<wr_alloc>,<mshr>:<N>:<merge>,<mq>:<rf>}
-gpgpu_const_cache:l1 N:128:64:8,L:R:f:N:L,S:2:64,4 # per-shader L1 constant memory cache  (READ-ONLY) config  {<nsets>:<bsize>:<assoc>,<rep>:<wr>:<alloc>:<wr_alloc>,<mshr>:<N>:<merge>,<mq>} 
-gpgpu_cache:il1     N:64:128:16,L:R:f:N:L,S:2:48,4 # shader L1 instruction cache config  {<sector?>:<nsets>:<bsize>:<assoc>,<rep>:<wr>:<alloc>:<wr_alloc>:<set_index_fn>,<mshr>:<N>:<merge>,<mq>} 
-gpgpu_cache:dl1     N:32:128:4,L:L:m:N:H,S:64:8,8 # per-shader L1 data cache config  {<sector?>:<nsets>:<bsize>:<assoc>,<rep>:<wr>:<alloc>:<wr_alloc>:<set_index_fn>,<mshr>:<N>:<merge>,<mq>:<fifo_entry>,<data_port_width> | none}
-gpgpu_l1_cache_write_ratio                    0 # L1D write ratio
-gpgpu_l1_banks                         1 # The number of L1 cache banks
-gpgpu_l1_banks_byte_interleaving                   32 # l1 banks byte interleaving granularity
-gpgpu_l1_banks_hashing_function                    0 # l1 banks hashing function
-gpgpu_l1_latency                      35 # L1 Hit Latency
-gpgpu_smem_latency                    29 # smem Latency
-gpgpu_cache:dl1PrefL1                 none # per-shader L1 data cache config  {<sector?>:<nsets>:<bsize>:<assoc>,<rep>:<wr>:<alloc>:<wr_alloc>:<set_index_fn>,<mshr>:<N>:<merge>,<mq>:<fifo_entry>,<data_port_width> | none}
-gpgpu_cache:dl1PrefShared                 none # per-shader L1 data cache config  {<sector?>:<nsets>:<bsize>:<assoc>,<rep>:<wr>:<alloc>:<wr_alloc>:<set_index_fn>,<mshr>:<N>:<merge>,<mq>:<fifo_entry>,<data_port_width> | none}
-gpgpu_gmem_skip_L1D                    0 # global memory access skip L1D cache (implements -Xptxas -dlcm=cg, default=no skip)
-gpgpu_generate_L1D_profile                    1 # Generate per-SM per-kernel L1D reference profile
-gpgpu_use_L1D_profile_bypass                    0 # Use loaded per-SM per-kernel L1D reference profile for bypass
-gpgpu_L1D_profile_infile      l1d_profile.txt # Input file for profile-based L1D bypass
-gpgpu_L1D_profile_outfile /accel-sim/accel-sim-framework/task2/l1d_profile.txt # Output file for generated L1D profile
-gpgpu_L1D_profile_threshold                    3 # Bypass if profiled reference count is below this threshold
-gpgpu_perfect_mem                      0 # enable perfect memory mode (no cache miss)
-n_regfile_gating_group                    4 # group of lanes that should be read/written together)
-gpgpu_clock_gated_reg_file                    0 # enable clock gated reg file for power calculations
-gpgpu_clock_gated_lanes                    0 # enable clock gated lanes for power calculations
-gpgpu_shader_registers                65536 # Number of registers per shader core. Limits number of concurrent CTAs. (default 8192)
-gpgpu_registers_per_block                65536 # Maximum number of registers per CTA. (default 8192)
-gpgpu_ignore_resources_limitation                    0 # gpgpu_ignore_resources_limitation (default 0)
-gpgpu_shader_cta                       8 # Maximum number of concurrent CTAs in shader (default 32)
-gpgpu_num_cta_barriers                   16 # Maximum number of named barriers per CTA (default 16)
-gpgpu_n_clusters                      15 # number of processing clusters
-gpgpu_n_cores_per_cluster                    1 # number of simd cores per cluster
-gpgpu_n_cluster_ejection_buffer_size                   32 # number of packets in ejection buffer
-gpgpu_n_ldst_response_buffer_size                    2 # number of response packets in ld/st unit ejection buffer
-gpgpu_shmem_per_block                49152 # Size of shared memory per thread block or CTA (default 48kB)
-gpgpu_shmem_size                  102400 # Size of shared memory per shader core (default 16kB)
-gpgpu_shmem_option                     0 # Option list of shared memory sizes
-gpgpu_unified_l1d_size                    0 # Size of unified data cache(L1D + shared memory) in KB
-gpgpu_adaptive_cache_config                    0 # adaptive_cache_config
-gpgpu_shmem_sizeDefault               102400 # Size of shared memory per shader core (default 16kB)
-gpgpu_shmem_size_PrefL1                16384 # Size of shared memory per shader core (default 16kB)
-gpgpu_shmem_size_PrefShared                16384 # Size of shared memory per shader core (default 16kB)
-gpgpu_shmem_num_banks                   32 # Number of banks in the shared memory in each shader core (default 16)
-gpgpu_shmem_limited_broadcast                    0 # Limit shared memory to do one broadcast per cycle (default on)
-gpgpu_shmem_warp_parts                    1 # Number of portions a warp is divided into for shared memory bank conflict check 
-gpgpu_mem_unit_ports                    1 # The number of memory transactions allowed per core cycle
-gpgpu_shmem_warp_parts                    1 # Number of portions a warp is divided into for shared memory bank conflict check 
-gpgpu_warpdistro_shader                   -1 # Specify which shader core to collect the warp size distribution from
-gpgpu_warp_issue_shader                    0 # Specify which shader core to collect the warp issue distribution from
-gpgpu_local_mem_map                    1 # Mapping from local memory space address to simulated GPU physical address space (default = enabled)
-gpgpu_num_reg_banks                    8 # Number of register banks (default = 8)
-gpgpu_reg_bank_use_warp_id                    0 # Use warp ID in mapping registers to banks (default = off)
-gpgpu_sub_core_model                    1 # Sub Core Volta/Pascal model (default = off)
-gpgpu_enable_specialized_operand_collector                    0 # enable_specialized_operand_collector
-gpgpu_operand_collector_num_units_sp                    4 # number of collector units (default = 4)
-gpgpu_operand_collector_num_units_dp                    0 # number of collector units (default = 0)
-gpgpu_operand_collector_num_units_sfu                    4 # number of collector units (default = 4)
-gpgpu_operand_collector_num_units_int                    0 # number of collector units (default = 0)
-gpgpu_operand_collector_num_units_tensor_core                    4 # number of collector units (default = 4)
-gpgpu_operand_collector_num_units_mem                    2 # number of collector units (default = 2)
-gpgpu_operand_collector_num_units_gen                    8 # number of collector units (default = 0)
-gpgpu_operand_collector_num_in_ports_sp                    1 # number of collector unit in ports (default = 1)
-gpgpu_operand_collector_num_in_ports_dp                    0 # number of collector unit in ports (default = 0)
-gpgpu_operand_collector_num_in_ports_sfu                    1 # number of collector unit in ports (default = 1)
-gpgpu_operand_collector_num_in_ports_int                    0 # number of collector unit in ports (default = 0)
-gpgpu_operand_collector_num_in_ports_tensor_core                    1 # number of collector unit in ports (default = 1)
-gpgpu_operand_collector_num_in_ports_mem                    1 # number of collector unit in ports (default = 1)
-gpgpu_operand_collector_num_in_ports_gen                    8 # number of collector unit in ports (default = 0)
-gpgpu_operand_collector_num_out_ports_sp                    1 # number of collector unit in ports (default = 1)
-gpgpu_operand_collector_num_out_ports_dp                    0 # number of collector unit in ports (default = 0)
-gpgpu_operand_collector_num_out_ports_sfu                    1 # number of collector unit in ports (default = 1)
-gpgpu_operand_collector_num_out_ports_int                    0 # number of collector unit in ports (default = 0)
-gpgpu_operand_collector_num_out_ports_tensor_core                    1 # number of collector unit in ports (default = 1)
-gpgpu_operand_collector_num_out_ports_mem                    1 # number of collector unit in ports (default = 1)
-gpgpu_operand_collector_num_out_ports_gen                    8 # number of collector unit in ports (default = 0)
-gpgpu_coalesce_arch                   86 # Coalescing arch (GT200 = 13, Fermi = 20)
-gpgpu_num_sched_per_core                    4 # Number of warp schedulers per core
-gpgpu_max_insn_issue_per_warp                    1 # Max number of instructions that can be issued per warp in one cycle by scheduler (either 1 or 2)
-gpgpu_dual_issue_diff_exec_units                    1 # should dual issue use two different execution unit resources (Default = 1)
-gpgpu_simt_core_sim_order                    1 # Select the simulation order of cores in a cluster (0=Fix, 1=Round-Robin)
-gpgpu_pipeline_widths 4,4,4,4,4,4,4,4,4,4,8,4,4 # Pipeline widths ID_OC_SP,ID_OC_DP,ID_OC_INT,ID_OC_SFU,ID_OC_MEM,OC_EX_SP,OC_EX_DP,OC_EX_INT,OC_EX_SFU,OC_EX_MEM,EX_WB,ID_OC_TENSOR_CORE,OC_EX_TENSOR_CORE
-gpgpu_tensor_core_avail                    1 # Tensor Core Available (default=0)
-gpgpu_num_sp_units                     4 # Number of SP units (default=1)
-gpgpu_num_dp_units                     4 # Number of DP units (default=0)
-gpgpu_num_int_units                    4 # Number of INT units (default=0)
-gpgpu_num_sfu_units                    4 # Number of SF units (default=1)
-gpgpu_num_tensor_core_units                    4 # Number of tensor_core units (default=1)
-gpgpu_num_mem_units                    1 # Number if ldst units (default=1) WARNING: not hooked up to anything
-gpgpu_scheduler                      lrr # Scheduler configuration: < lrr | gto | two_level_active > If two_level_active:<num_active_warps>:<inner_prioritization>:<outer_prioritization>For complete list of prioritization values see shader.h enum scheduler_prioritization_typeDefault: gto
-gpgpu_concurrent_kernel_sm                    0 # Support concurrent kernels on a SM (default = disabled)
-gpgpu_perfect_inst_const_cache                    1 # perfect inst and const cache mode, so all inst and const hits in the cache(default = disabled)
-gpgpu_inst_fetch_throughput                    4 # the number of fetched intruction per warp each cycle
-gpgpu_reg_file_port_throughput                    2 # the number ports of the register file
-specialized_unit_1         1,4,4,4,4,BRA # specialized unit config {<enabled>,<num_units>:<latency>:<initiation>,<ID_OC_SPEC>:<OC_EX_SPEC>,<NAME>}
-specialized_unit_2       1,4,200,4,4,TEX # specialized unit config {<enabled>,<num_units>:<latency>:<initiation>,<ID_OC_SPEC>:<OC_EX_SPEC>,<NAME>}
-specialized_unit_3     1,4,32,4,4,TENSOR # specialized unit config {<enabled>,<num_units>:<latency>:<initiation>,<ID_OC_SPEC>:<OC_EX_SPEC>,<NAME>}
-specialized_unit_4         1,4,4,4,4,UDP # specialized unit config {<enabled>,<num_units>:<latency>:<initiation>,<ID_OC_SPEC>:<OC_EX_SPEC>,<NAME>}
-specialized_unit_5         0,4,4,4,4,BRA # specialized unit config {<enabled>,<num_units>:<latency>:<initiation>,<ID_OC_SPEC>:<OC_EX_SPEC>,<NAME>}
-specialized_unit_6         0,4,4,4,4,BRA # specialized unit config {<enabled>,<num_units>:<latency>:<initiation>,<ID_OC_SPEC>:<OC_EX_SPEC>,<NAME>}
-specialized_unit_7         0,4,4,4,4,BRA # specialized unit config {<enabled>,<num_units>:<latency>:<initiation>,<ID_OC_SPEC>:<OC_EX_SPEC>,<NAME>}
-specialized_unit_8         0,4,4,4,4,BRA # specialized unit config {<enabled>,<num_units>:<latency>:<initiation>,<ID_OC_SPEC>:<OC_EX_SPEC>,<NAME>}
-gpgpu_perf_sim_memcpy                    1 # Fill the L2 cache on memcpy
-gpgpu_simple_dram_model                    0 # simple_dram_model with fixed latency and BW
-gpgpu_dram_scheduler                    1 # 0 = fifo, 1 = FR-FCFS (defaul)
-gpgpu_dram_partition_queues          64:64:64:64 # i2$:$2d:d2$:$2i
-l2_ideal                               0 # Use a ideal L2 cache that always hit
-gpgpu_cache:dl2     S:64:128:16,L:B:m:L:P,A:192:4,32:0,32 # unified banked L2 data cache config  {<sector?>:<nsets>:<bsize>:<assoc>,<rep>:<wr>:<alloc>:<wr_alloc>:<set_index_fn>,<mshr>:<N>:<merge>,<mq>:<fifo_entry>,<data_port_width>
-gpgpu_cache:dl2_texture_only                    0 # L2 cache used for texture only
-gpgpu_n_mem                            6 # number of memory modules (e.g. memory controllers) in gpu
-gpgpu_n_sub_partition_per_mchannel                    2 # number of memory subpartition in each memory module
-gpgpu_n_mem_per_ctrlr                    2 # number of memory chips per memory controller
-gpgpu_memlatency_stat                   14 # track and display latency statistics 0x2 enables MC, 0x4 enables queue logs
-gpgpu_frfcfs_dram_sched_queue_size                   64 # 0 = unlimited (default); # entries per chip
-gpgpu_dram_return_queue_size                  116 # 0 = unlimited (default); # entries per chip
-gpgpu_dram_buswidth                    4 # default = 4 bytes (8 bytes per cycle at DDR)
-gpgpu_dram_burst_length                    8 # Burst length of each DRAM request (default = 4 data bus cycle)
-dram_data_command_freq_ratio                    4 # Frequency ratio between DRAM data bus and command bus (default = 2 times, i.e. DDR)
-gpgpu_dram_timing_opt nbk=16:CCD=2:RRD=6:RCD=12:RAS=28:RP=12:RC=40: CL=12:WL=4:CDLR=5:WR=12:nbkgrp=4:CCDL=3:RTPL=2 # DRAM timing parameters = {nbk:tCCD:tRRD:tRCD:tRAS:tRP:tRC:CL:WL:tCDLR:tWR:nbkgrp:tCCDL:tRTPL}
-gpgpu_l2_rop_latency                  120 # ROP queue latency (default 85)
-dram_latency                         100 # DRAM latency (default 30)
-dram_dual_bus_interface                    0 # dual_bus_interface (default = 0) 
-dram_bnk_indexing_policy                    0 # dram_bnk_indexing_policy (0 = normal indexing, 1 = Xoring with the higher bits) (Default = 0)
-dram_bnkgrp_indexing_policy                    1 # dram_bnkgrp_indexing_policy (0 = take higher bits, 1 = take lower bits) (Default = 0)
-dram_seperate_write_queue_enable                    0 # Seperate_Write_Queue_Enable
-dram_write_queue_size             32:28:16 # Write_Queue_Size
-dram_elimnate_rw_turnaround                    0 # elimnate_rw_turnaround i.e set tWTR and tRTW = 0
-icnt_flit_size                        40 # icnt_flit_size
-SST_mode                               0 # SST mode
-gpgpu_mem_addr_mapping dramid@8;00000000.00000000.00000000.00000000.0000RRRR.RRRRRRRR.BBBCCCCB.CCSSSSSS # mapping memory address to dram model {dramid@<start bit>;<memory address map>}
-gpgpu_mem_addr_test                    0 # run sweep test to check address mapping for aliased address
-gpgpu_mem_address_mask                    1 # 0 = old addressing mask, 1 = new addressing mask, 2 = new add. mask + flipped bank sel and chip sel bits
-gpgpu_memory_partition_indexing                    2 # 0 = no indexing, 1 = bitwise xoring, 2 = IPoly, 3 = custom indexing
-accelwattch_xml_file accelwattch_sass_sim.xml # AccelWattch XML file
-power_simulation_enabled                    0 # Turn on power simulator (1=On, 0=Off)
-power_per_cycle_dump                    0 # Dump detailed power output each cycle
-hw_perf_file_name            hw_perf.csv # Hardware Performance Statistics file
-hw_perf_bench_name                       # Kernel Name in Hardware Performance Statistics file
-power_simulation_mode                    0 # Switch performance counter input for power simulation (0=Sim, 1=HW, 2=HW-Sim Hybrid)
-dvfs_enabled                           0 # Turn on DVFS for power model
-aggregate_power_stats                    0 # Accumulate power across all kernels
-accelwattch_hybrid_perfsim_L1_RH                    0 # Get L1 Read Hits for Accelwattch-Hybrid from Accel-Sim
-accelwattch_hybrid_perfsim_L1_RM                    0 # Get L1 Read Misses for Accelwattch-Hybrid from Accel-Sim
-accelwattch_hybrid_perfsim_L1_WH                    0 # Get L1 Write Hits for Accelwattch-Hybrid from Accel-Sim
-accelwattch_hybrid_perfsim_L1_WM                    0 # Get L1 Write Misses for Accelwattch-Hybrid from Accel-Sim
-accelwattch_hybrid_perfsim_L2_RH                    0 # Get L2 Read Hits for Accelwattch-Hybrid from Accel-Sim
-accelwattch_hybrid_perfsim_L2_RM                    0 # Get L2 Read Misses for Accelwattch-Hybrid from Accel-Sim
-accelwattch_hybrid_perfsim_L2_WH                    0 # Get L2 Write Hits for Accelwattch-Hybrid from Accel-Sim
-accelwattch_hybrid_perfsim_L2_WM                    0 # Get L2 Write Misses for Accelwattch-Hybrid from Accel-Sim
-accelwattch_hybrid_perfsim_CC_ACC                    0 # Get Constant Cache Acesses for Accelwattch-Hybrid from Accel-Sim
-accelwattch_hybrid_perfsim_SHARED_ACC                    0 # Get Shared Memory Acesses for Accelwattch-Hybrid from Accel-Sim
-accelwattch_hybrid_perfsim_DRAM_RD                    0 # Get DRAM Reads for Accelwattch-Hybrid from Accel-Sim
-accelwattch_hybrid_perfsim_DRAM_WR                    0 # Get DRAM Writes for Accelwattch-Hybrid from Accel-Sim
-accelwattch_hybrid_perfsim_NOC                    0 # Get Interconnect Acesses for Accelwattch-Hybrid from Accel-Sim
-accelwattch_hybrid_perfsim_PIPE_DUTY                    0 # Get Pipeline Duty Cycle Acesses for Accelwattch-Hybrid from Accel-Sim
-accelwattch_hybrid_perfsim_NUM_SM_IDLE                    0 # Get Number of Idle SMs for Accelwattch-Hybrid from Accel-Sim
-accelwattch_hybrid_perfsim_CYCLES                    0 # Get Executed Cycles for Accelwattch-Hybrid from Accel-Sim
-accelwattch_hybrid_perfsim_VOLTAGE                    0 # Get Chip Voltage for Accelwattch-Hybrid from Accel-Sim
-power_trace_enabled                    0 # produce a file for the power trace (1=On, 0=Off)
-power_trace_zlevel                     6 # Compression level of the power trace output log (0=no comp, 9=highest)
-steady_power_levels_enabled                    0 # produce a file for the steady power levels (1=On, 0=Off)
-steady_state_definition                  8:4 # allowed deviation:number of samples
-gpgpu_max_cycle                        0 # terminates gpu simulation early (0 = no limit)
-gpgpu_max_insn                 100000000 # terminates gpu simulation early (0 = no limit)
-gpgpu_max_cta                          0 # terminates gpu simulation early (0 = no limit)
-gpgpu_max_completed_cta                    0 # terminates gpu simulation early (0 = no limit)
-gpgpu_runtime_stat                   500 # display runtime statistics such as dram utilization {<freq>:<flag>}
-liveness_message_freq                    1 # Minimum number of seconds between simulation liveness messages (0 = always print)
-gpgpu_compute_capability_major                    8 # Major compute capability version number
-gpgpu_compute_capability_minor                    6 # Minor compute capability version number
-gpgpu_flush_l1_cache                    1 # Flush L1 cache at the end of each kernel call
-gpgpu_flush_l2_cache                    0 # Flush L2 cache at the end of each kernel call
-gpgpu_deadlock_detect                    1 # Stop the simulation at deadlock (1=on (default), 0=off)
-gpgpu_ptx_instruction_classification                    0 # if enabled will classify ptx instruction types per kernel (Max 255 kernels now)
-gpgpu_ptx_sim_mode                     0 # Select between Performance (default) or Functional simulation (1)
-gpgpu_clock_domains 1132:1132:1132:3500.5 # Clock Domain Frequencies in MhZ {<Core Clock>:<ICNT Clock>:<L2 Clock>:<DRAM Clock>}
-gpgpu_max_concurrent_kernel                  128 # maximum kernels that can run concurrently on GPU, set this value according to max resident grids for your compute capability
-gpgpu_cflog_interval                    0 # Interval between each snapshot in control flow logger
-visualizer_enabled                     0 # Turn on visualizer output (1=On, 0=Off)
-visualizer_outputfile                 NULL # Specifies the output log file for visualizer
-visualizer_zlevel                      6 # Compression level of the visualizer output log (0=no comp, 9=highest)
-gpgpu_stack_size_limit                 1024 # GPU thread stack size
-gpgpu_heap_size_limit              8388608 # GPU malloc heap size 
-gpgpu_runtime_sync_depth_limit                    2 # GPU device runtime synchronize depth
-gpgpu_runtime_pending_launch_count_limit                 2048 # GPU device runtime pending launch count
-trace_enabled                          0 # Turn on traces
-trace_components                    none # comma seperated list of traces to enable. Complete list found in trace_streams.tup. Default none
-trace_sampling_core                    0 # The core which is printed using CORE_DPRINTF. Default 0
-trace_sampling_memory_partition                   -1 # The memory partition which is printed using MEMPART_DPRINTF. Default -1 (i.e. all)
-enable_ptx_file_line_stats                    1 # Turn on PTX source line statistic profiling. (1 = On)
-ptx_line_stats_filename gpgpu_inst_stats.txt # Output file for PTX source line statistics.
-gpgpu_kernel_launch_latency                 5000 # Kernel launch latency in cycles. Default: 0
-gpgpu_cdp_enabled                      0 # Turn on CDP
-gpgpu_TB_launch_latency                    0 # thread block launch latency in cycles. Default: 0
-trace               ./util/tracer_nvbit/LPS_traces/kernelslist.g # traces kernel filetraces kernel file directory
-trace_opcode_latency_initiation_int                  2,2 # Opcode latencies and initiation for integers in trace driven mode <latency,initiation>
-trace_opcode_latency_initiation_sp                  2,1 # Opcode latencies and initiation for sp in trace driven mode <latency,initiation>
-trace_opcode_latency_initiation_dp                64,64 # Opcode latencies and initiation for dp in trace driven mode <latency,initiation>
-trace_opcode_latency_initiation_sfu                 21,8 # Opcode latencies and initiation for sfu in trace driven mode <latency,initiation>
-trace_opcode_latency_initiation_tensor                32,32 # Opcode latencies and initiation for tensor in trace driven mode <latency,initiation>
-trace_opcode_latency_initiation_spec_op_1                  4,4 # specialized unit config <latency,initiation>
-trace_opcode_latency_initiation_spec_op_2                200,4 # specialized unit config <latency,initiation>
-trace_opcode_latency_initiation_spec_op_3                32,32 # specialized unit config <latency,initiation>
-trace_opcode_latency_initiation_spec_op_4                  4,1 # specialized unit config <latency,initiation>
-trace_opcode_latency_initiation_spec_op_5                  4,4 # specialized unit config <latency,initiation>
-trace_opcode_latency_initiation_spec_op_6                  4,4 # specialized unit config <latency,initiation>
-trace_opcode_latency_initiation_spec_op_7                  4,4 # specialized unit config <latency,initiation>
-trace_opcode_latency_initiation_spec_op_8                  4,4 # specialized unit config <latency,initiation>
DRAM Timing Options:
nbk                                    16 # number of banks
CCD                                     2 # column to column delay
RRD                                     6 # minimal delay between activation of rows in different banks
RCD                                    12 # row to column delay
RAS                                    28 # time needed to activate row
RP                                     12 # time needed to precharge (deactivate) row
RC                                     40 # row cycle time
CDLR                                    5 # switching from write to read (changes tWTR)
WR                                     12 # last data-in to row precharge
CL                                     12 # CAS latency
WL                                      4 # Write latency
nbkgrp                                  4 # number of bank groups
CCDL                                    3 # column to column delay between accesses to different bank groups
RTPL                                    2 # read to precharge delay between accesses to different bank groups
Total number of memory sub partition = 12
addr_dec_mask[CHIP]  = 0000000000000000 	high:64 low:0
addr_dec_mask[BK]    = 000000000000e100 	high:16 low:8
addr_dec_mask[ROW]   = 000000000fff0000 	high:28 low:16
addr_dec_mask[COL]   = 0000000000001eff 	high:13 low:0
addr_dec_mask[BURST] = 000000000000003f 	high:6 low:0
sub_partition_id_mask = 0000000000000100
GPGPU-Sim uArch: clock freqs: 1132000000.000000:1132000000.000000:1132000000.000000:3500500000.000000
GPGPU-Sim uArch: clock periods: 0.00000000088339222615:0.00000000088339222615:0.00000000088339222615:0.00000000028567347522
*** Initializing Memory Statistics ***
GPGPU-Sim uArch: performance model initialization complete.
Processing kernel ./util/tracer_nvbit/LPS_traces/kernel-1-ctx_0xb0aa750.traceg.xz
-kernel name = _Z13GPU_laplace3diiiiPfS_
-kernel id = 1
-grid dim = (4,25,1)
-block dim = (32,4,1)
-shmem = 2448
-nregs = 23
-binary version = 86
-cuda stream id = 0
-shmem base_addr = 0x00007e0cf5000000
-local mem base_addr = 0x00007e0cf3000000
-nvbit version = 1.7.6
-accelsim tracer version = 5
-enable lineinfo = 0
Header info loaded for kernel command : ./util/tracer_nvbit/LPS_traces/kernel-1-ctx_0xb0aa750.traceg.xz
launching kernel name: _Z13GPU_laplace3diiiiPfS_ uid: 1 cuda_stream_id: 0
GPGPU-Sim uArch: Shader 0 bind to kernel 1 '_Z13GPU_laplace3diiiiPfS_'
GPGPU-Sim uArch: CTA/core = 8, limited by: cta_limit
thread block = 0,0,0
GPGPU-Sim uArch: Shader 1 bind to kernel 1 '_Z13GPU_laplace3diiiiPfS_'
thread block = 1,0,0
GPGPU-Sim uArch: Shader 2 bind to kernel 1 '_Z13GPU_laplace3diiiiPfS_'
thread block = 2,0,0
GPGPU-Sim uArch: Shader 3 bind to kernel 1 '_Z13GPU_laplace3diiiiPfS_'
thread block = 3,0,0
GPGPU-Sim uArch: Shader 4 bind to kernel 1 '_Z13GPU_laplace3diiiiPfS_'
thread block = 0,1,0
GPGPU-Sim uArch: Shader 5 bind to kernel 1 '_Z13GPU_laplace3diiiiPfS_'
thread block = 1,1,0
GPGPU-Sim uArch: Shader 6 bind to kernel 1 '_Z13GPU_laplace3diiiiPfS_'
thread block = 2,1,0
GPGPU-Sim uArch: Shader 7 bind to kernel 1 '_Z13GPU_laplace3diiiiPfS_'
thread block = 3,1,0
GPGPU-Sim uArch: Shader 8 bind to kernel 1 '_Z13GPU_laplace3diiiiPfS_'
thread block = 0,2,0
GPGPU-Sim uArch: Shader 9 bind to kernel 1 '_Z13GPU_laplace3diiiiPfS_'
thread block = 1,2,0
GPGPU-Sim uArch: Shader 10 bind to kernel 1 '_Z13GPU_laplace3diiiiPfS_'
thread block = 2,2,0
GPGPU-Sim uArch: Shader 11 bind to kernel 1 '_Z13GPU_laplace3diiiiPfS_'
thread block = 3,2,0
GPGPU-Sim uArch: Shader 12 bind to kernel 1 '_Z13GPU_laplace3diiiiPfS_'
thread block = 0,3,0
GPGPU-Sim uArch: Shader 13 bind to kernel 1 '_Z13GPU_laplace3diiiiPfS_'
thread block = 1,3,0
GPGPU-Sim uArch: Shader 14 bind to kernel 1 '_Z13GPU_laplace3diiiiPfS_'
thread block = 2,3,0
thread block = 3,3,0
thread block = 0,4,0
thread block = 1,4,0
thread block = 2,4,0
thread block = 3,4,0
thread block = 0,5,0
thread block = 1,5,0
thread block = 2,5,0
thread block = 3,5,0
thread block = 0,6,0
thread block = 1,6,0
thread block = 2,6,0
thread block = 3,6,0
thread block = 0,7,0
thread block = 1,7,0
thread block = 2,7,0
thread block = 3,7,0
thread block = 0,8,0
thread block = 1,8,0
thread block = 2,8,0
thread block = 3,8,0
thread block = 0,9,0
thread block = 1,9,0
thread block = 2,9,0
thread block = 3,9,0
thread block = 0,10,0
thread block = 1,10,0
thread block = 2,10,0
thread block = 3,10,0
thread block = 0,11,0
thread block = 1,11,0
thread block = 2,11,0
thread block = 3,11,0
thread block = 0,12,0
thread block = 1,12,0
thread block = 2,12,0
thread block = 3,12,0
thread block = 0,13,0
thread block = 1,13,0
thread block = 2,13,0
thread block = 3,13,0
thread block = 0,14,0
thread block = 1,14,0
thread block = 2,14,0
thread block = 3,14,0
thread block = 0,15,0
thread block = 1,15,0
thread block = 2,15,0
thread block = 3,15,0
thread block = 0,16,0
thread block = 1,16,0
thread block = 2,16,0
thread block = 3,16,0
thread block = 0,17,0
thread block = 1,17,0
thread block = 2,17,0
thread block = 3,17,0
thread block = 0,18,0
thread block = 1,18,0
thread block = 2,18,0
thread block = 3,18,0
thread block = 0,19,0
thread block = 1,19,0
thread block = 2,19,0
thread block = 3,19,0
thread block = 0,20,0
thread block = 1,20,0
thread block = 2,20,0
thread block = 3,20,0
thread block = 0,21,0
thread block = 1,21,0
thread block = 2,21,0
thread block = 3,21,0
thread block = 0,22,0
thread block = 1,22,0
thread block = 2,22,0
thread block = 3,22,0
thread block = 0,23,0
thread block = 1,23,0
thread block = 2,23,0
thread block = 3,23,0
thread block = 0,24,0
thread block = 1,24,0
thread block = 2,24,0
thread block = 3,24,0
Destroy streams for kernel 1: size 0
kernel_name = _Z13GPU_laplace3diiiiPfS_ 
kernel_launch_uid = 1 
kernel_stream_id = 0
gpu_sim_cycle = 141715
gpu_sim_insn = 52655600
gpu_ipc =     371.5598
gpu_tot_sim_cycle = 141715
gpu_tot_sim_insn = 52655600
gpu_tot_ipc =     371.5598
gpu_tot_issued_cta = 100
gpu_occupancy = 55.1554% 
gpu_tot_occupancy = 55.1554% 
max_total_param_size = 0
gpu_stall_dramfull = 367
gpu_stall_icnt2sh    = 2284
partiton_level_parallism =       1.9617
partiton_level_parallism_total  =       1.9617
partiton_level_parallism_util =       2.2550
partiton_level_parallism_util_total  =       2.2550
L2_BW  =     184.5516 GB/Sec
L2_BW_total  =     184.5516 GB/Sec
gpu_total_sim_rate=2925311

========= Core cache stats =========
L1I_cache:
	L1I_total_cache_accesses = 0
	L1I_total_cache_misses = 0
	L1I_total_cache_pending_hits = 0
	L1I_total_cache_reservation_fails = 0
L1D_cache:
	L1D_cache_core[0]: Access = 27500, Miss = 18800, Miss_rate = 0.684, Pending_hits = 8700, Reservation_fails = 807
	L1D_cache_core[1]: Access = 27400, Miss = 18700, Miss_rate = 0.682, Pending_hits = 8700, Reservation_fails = 1263
	L1D_cache_core[2]: Access = 31000, Miss = 20500, Miss_rate = 0.661, Pending_hits = 10500, Reservation_fails = 1632
	L1D_cache_core[3]: Access = 28400, Miss = 19400, Miss_rate = 0.683, Pending_hits = 9000, Reservation_fails = 2241
	L1D_cache_core[4]: Access = 28000, Miss = 19000, Miss_rate = 0.679, Pending_hits = 9000, Reservation_fails = 1586
	L1D_cache_core[5]: Access = 28000, Miss = 19000, Miss_rate = 0.679, Pending_hits = 9000, Reservation_fails = 2012
	L1D_cache_core[6]: Access = 31100, Miss = 20600, Miss_rate = 0.662, Pending_hits = 10500, Reservation_fails = 1460
	L1D_cache_core[7]: Access = 28000, Miss = 19300, Miss_rate = 0.689, Pending_hits = 8700, Reservation_fails = 1730
	L1D_cache_core[8]: Access = 27400, Miss = 18700, Miss_rate = 0.682, Pending_hits = 8700, Reservation_fails = 1694
	L1D_cache_core[9]: Access = 27800, Miss = 18800, Miss_rate = 0.676, Pending_hits = 9000, Reservation_fails = 2120
	L1D_cache_core[10]: Access = 27000, Miss = 18000, Miss_rate = 0.667, Pending_hits = 9000, Reservation_fails = 724
	L1D_cache_core[11]: Access = 23400, Miss = 16200, Miss_rate = 0.692, Pending_hits = 7200, Reservation_fails = 572
	L1D_cache_core[12]: Access = 22800, Miss = 15600, Miss_rate = 0.684, Pending_hits = 7200, Reservation_fails = 726
	L1D_cache_core[13]: Access = 26400, Miss = 17400, Miss_rate = 0.659, Pending_hits = 9000, Reservation_fails = 939
	L1D_cache_core[14]: Access = 27000, Miss = 18000, Miss_rate = 0.667, Pending_hits = 9000, Reservation_fails = 934
	L1D_total_cache_accesses = 411200
	L1D_total_cache_misses = 278000
	L1D_total_cache_miss_rate = 0.6761
	L1D_total_cache_pending_hits = 133200
	L1D_total_cache_reservation_fails = 20440
	L1D_cache_data_port_util = 0.000
	L1D_cache_fill_port_util = 0.072
L1C_cache:
	L1C_total_cache_accesses = 0
	L1C_total_cache_misses = 0
	L1C_total_cache_pending_hits = 0
	L1C_total_cache_reservation_fails = 0
L1T_cache:
	L1T_total_cache_accesses = 0
	L1T_total_cache_misses = 0
	L1T_total_cache_pending_hits = 0
	L1T_total_cache_reservation_fails = 0

Total_core_cache_stats:
	Total_core_cache_stats_breakdown[GLOBAL_ACC_R][HIT] = 0
	Total_core_cache_stats_breakdown[GLOBAL_ACC_R][HIT_RESERVED] = 133200
	Total_core_cache_stats_breakdown[GLOBAL_ACC_R][MISS] = 148000
	Total_core_cache_stats_breakdown[GLOBAL_ACC_R][RESERVATION_FAIL] = 20440
	Total_core_cache_stats_breakdown[GLOBAL_ACC_R][SECTOR_MISS] = 0
	Total_core_cache_stats_breakdown[GLOBAL_ACC_R][MSHR_HIT] = 133200
	Total_core_cache_stats_breakdown[LOCAL_ACC_R][HIT] = 0
	Total_core_cache_stats_breakdown[LOCAL_ACC_R][HIT_RESERVED] = 0
	Total_core_cache_stats_breakdown[LOCAL_ACC_R][MISS] = 0
	Total_core_cache_stats_breakdown[LOCAL_ACC_R][RESERVATION_FAIL] = 0
	Total_core_cache_stats_breakdown[LOCAL_ACC_R][SECTOR_MISS] = 0
	Total_core_cache_stats_breakdown[LOCAL_ACC_R][MSHR_HIT] = 0
	Total_core_cache_stats_breakdown[CONST_ACC_R][HIT] = 0
	Total_core_cache_stats_breakdown[CONST_ACC_R][HIT_RESERVED] = 0
	Total_core_cache_stats_breakdown[CONST_ACC_R][MISS] = 0
	Total_core_cache_stats_breakdown[CONST_ACC_R][RESERVATION_FAIL] = 0
	Total_core_cache_stats_breakdown[CONST_ACC_R][SECTOR_MISS] = 0
	Total_core_cache_stats_breakdown[CONST_ACC_R][MSHR_HIT] = 0
	Total_core_cache_stats_breakdown[TEXTURE_ACC_R][HIT] = 0
	Total_core_cache_stats_breakdown[TEXTURE_ACC_R][HIT_RESERVED] = 0
	Total_core_cache_stats_breakdown[TEXTURE_ACC_R][MISS] = 0
	Total_core_cache_stats_breakdown[TEXTURE_ACC_R][RESERVATION_FAIL] = 0
	Total_core_cache_stats_breakdown[TEXTURE_ACC_R][SECTOR_MISS] = 0
	Total_core_cache_stats_breakdown[TEXTURE_ACC_R][MSHR_HIT] = 0
	Total_core_cache_stats_breakdown[GLOBAL_ACC_W][HIT] = 0
	Total_core_cache_stats_breakdown[GLOBAL_ACC_W][HIT_RESERVED] = 0
	Total_core_cache_stats_breakdown[GLOBAL_ACC_W][MISS] = 130000
	Total_core_cache_stats_breakdown[GLOBAL_ACC_W][RESERVATION_FAIL] = 0
	Total_core_cache_stats_breakdown[GLOBAL_ACC_W][SECTOR_MISS] = 0
	Total_core_cache_stats_breakdown[GLOBAL_ACC_W][MSHR_HIT] = 0
	Total_core_cache_stats_breakdown[LOCAL_ACC_W][HIT] = 0
	Total_core_cache_stats_breakdown[LOCAL_ACC_W][HIT_RESERVED] = 0
	Total_core_cache_stats_breakdown[LOCAL_ACC_W][MISS] = 0
	Total_core_cache_stats_breakdown[LOCAL_ACC_W][RESERVATION_FAIL] = 0
	Total_core_cache_stats_breakdown[LOCAL_ACC_W][SECTOR_MISS] = 0
	Total_core_cache_stats_breakdown[LOCAL_ACC_W][MSHR_HIT] = 0
	Total_core_cache_stats_breakdown[L1_WRBK_ACC][HIT] = 0
	Total_core_cache_stats_breakdown[L1_WRBK_ACC][HIT_RESERVED] = 0
	Total_core_cache_stats_breakdown[L1_WRBK_ACC][MISS] = 0
	Total_core_cache_stats_breakdown[L1_WRBK_ACC][RESERVATION_FAIL] = 0
	Total_core_cache_stats_breakdown[L1_WRBK_ACC][SECTOR_MISS] = 0
	Total_core_cache_stats_breakdown[L1_WRBK_ACC][MSHR_HIT] = 0
	Total_core_cache_stats_breakdown[L2_WRBK_ACC][HIT] = 0
	Total_core_cache_stats_breakdown[L2_WRBK_ACC][HIT_RESERVED] = 0
	Total_core_cache_stats_breakdown[L2_WRBK_ACC][MISS] = 0
	Total_core_cache_stats_breakdown[L2_WRBK_ACC][RESERVATION_FAIL] = 0
	Total_core_cache_stats_breakdown[L2_WRBK_ACC][SECTOR_MISS] = 0
	Total_core_cache_stats_breakdown[L2_WRBK_ACC][MSHR_HIT] = 0
	Total_core_cache_stats_breakdown[INST_ACC_R][HIT] = 0
	Total_core_cache_stats_breakdown[INST_ACC_R][HIT_RESERVED] = 0
	Total_core_cache_stats_breakdown[INST_ACC_R][MISS] = 0
	Total_core_cache_stats_breakdown[INST_ACC_R][RESERVATION_FAIL] = 0
	Total_core_cache_stats_breakdown[INST_ACC_R][SECTOR_MISS] = 0
	Total_core_cache_stats_breakdown[INST_ACC_R][MSHR_HIT] = 0
	Total_core_cache_stats_breakdown[L1_WR_ALLOC_R][HIT] = 0
	Total_core_cache_stats_breakdown[L1_WR_ALLOC_R][HIT_RESERVED] = 0
	Total_core_cache_stats_breakdown[L1_WR_ALLOC_R][MISS] = 0
	Total_core_cache_stats_breakdown[L1_WR_ALLOC_R][RESERVATION_FAIL] = 0
	Total_core_cache_stats_breakdown[L1_WR_ALLOC_R][SECTOR_MISS] = 0
	Total_core_cache_stats_breakdown[L1_WR_ALLOC_R][MSHR_HIT] = 0
	Total_core_cache_stats_breakdown[L2_WR_ALLOC_R][HIT] = 0
	Total_core_cache_stats_breakdown[L2_WR_ALLOC_R][HIT_RESERVED] = 0
	Total_core_cache_stats_breakdown[L2_WR_ALLOC_R][MISS] = 0
	Total_core_cache_stats_breakdown[L2_WR_ALLOC_R][RESERVATION_FAIL] = 0
	Total_core_cache_stats_breakdown[L2_WR_ALLOC_R][SECTOR_MISS] = 0
	Total_core_cache_stats_breakdown[L2_WR_ALLOC_R][MSHR_HIT] = 0
	Total_core_cache_stats_breakdown[GLOBAL_ACC_R][TOTAL_ACCESS] = 281200
	Total_core_cache_stats_breakdown[GLOBAL_ACC_W][TOTAL_ACCESS] = 130000

Total_core_cache_fail_stats:
	Total_core_cache_fail_stats_breakdown[GLOBAL_ACC_R][LINE_ALLOC_FAIL] = 18968
	Total_core_cache_fail_stats_breakdown[GLOBAL_ACC_R][MSHR_ENRTY_FAIL] = 1472
ctas_completed 100, Shader 0 warp_id issue ditsribution:
warp_id:
0, 1, 2, 3, 4, 5, 6, 7, 8, 9, 10, 11, 12, 13, 14, 15, 16, 17, 18, 19, 20, 21, 22, 23, 24, 25, 26, 27, 
distro:
3657, 6125, 6226, 5001, 6425, 6425, 6426, 5201, 5929, 5929, 6030, 4805, 5929, 5929, 6030, 4805, 6125, 6125, 6226, 5001, 6425, 6425, 6426, 5201, 5929, 5929, 6030, 4805, 
gpgpu_n_tot_thrd_icount = 74058880
gpgpu_n_tot_w_icount = 2314340
gpgpu_n_stall_shd_mem = 305827
gpgpu_n_mem_read_local = 0
gpgpu_n_mem_write_local = 0
gpgpu_n_mem_read_global = 148000
gpgpu_n_mem_write_global = 130000
gpgpu_n_mem_texture = 0
gpgpu_n_mem_const = 0
gpgpu_n_load_insn  = 1568800
gpgpu_n_store_insn = 1000000
gpgpu_n_shmem_insn = 13549960
gpgpu_n_sstarr_insn = 0
gpgpu_n_tex_insn = 0
gpgpu_n_const_mem_insn = 0
gpgpu_n_param_mem_insn = 0
gpgpu_n_shmem_bkconflict = 0
gpgpu_n_l1cache_bkconflict = 3827
gpgpu_n_intrawarp_mshr_merge = 0
gpgpu_n_cmem_portconflict = 0
gpgpu_stall_shd_mem[c_mem][resource_stall] = 0
gpgpu_stall_shd_mem[s_mem][bk_conf] = 0
gpgpu_stall_shd_mem[gl_mem][resource_stall] = 3827
gpgpu_stall_shd_mem[gl_mem][coal_stall] = 302000
gpgpu_stall_shd_mem[gl_mem][data_port_stall] = 0
gpu_reg_bank_conflict_stalls = 0
Warp Occupancy Distribution:
Stall:774758	W0_Idle:57583	W0_Scoreboard:5186195	W1:57624	W2:0	W3:134456	W4:261636	W5:4404	W6:50646	W7:0	W8:0	W9:0	W10:4404	W11:0	W12:53246	W13:0	W14:0	W15:0	W16:0	W17:0	W18:0	W19:0	W20:9400	W21:0	W22:800	W23:0	W24:0	W25:0	W26:9200	W27:800	W28:49600	W29:0	W30:0	W31:134456	W32:1378620
single_issue_nums: WS0:600620	WS1:605716	WS2:617800	WS3:490204	
dual_issue_nums: WS0:0	WS1:0	WS2:0	WS3:0	
traffic_breakdown_coretomem[GLOBAL_ACC_R] = 1184000 {8:148000,}
traffic_breakdown_coretomem[GLOBAL_ACC_W] = 5200000 {40:130000,}
traffic_breakdown_memtocore[GLOBAL_ACC_R] = 23680000 {40:592000,}
traffic_breakdown_memtocore[GLOBAL_ACC_W] = 1040000 {8:130000,}
maxmflatency = 1299 
max_icnt2mem_latency = 561 
maxmrqlatency = 76 
max_icnt2sh_latency = 903 
averagemflatency = 306 
avg_icnt2mem_latency = 15 
avg_mrq_latency = 1 
avg_icnt2sh_latency = 137 
mrq_lat_table:150776 	6632 	21990 	10286 	3753 	182 	7 	0 	0 	0 	0 	0 	0 	0 	0 	0 	0 	0 	0 	0 	0 	0 	0 	0 	0 	0 	0 	0 	0 	0 	0 	0 	
dq_lat_table:0 	0 	0 	0 	0 	0 	0 	0 	0 	0 	0 	0 	0 	0 	0 	0 	0 	0 	0 	0 	0 	0 	0 	0 	0 	0 	0 	0 	0 	0 	0 	0 	
mf_lat_table:0 	0 	0 	0 	0 	0 	37133 	384125 	176627 	122830 	1285 	0 	0 	0 	0 	0 	0 	0 	0 	0 	0 	0 	0 	0 	0 	0 	0 	0 	0 	0 	0 	0 	
icnt2mem_lat_table:0 	0 	0 	0 	0 	275901 	1163 	700 	234 	2 	0 	0 	0 	0 	0 	0 	0 	0 	0 	0 	0 	0 	0 	0 	
icnt2sh_lat_table:0 	95826 	69605 	81505 	93236 	81721 	67556 	74198 	106147 	52206 	0 	0 	0 	0 	0 	0 	0 	0 	0 	0 	0 	0 	0 	0 	
mf_lat_pw_table:0 	0 	0 	0 	0 	0 	0 	6 	267 	0 	0 	0 	0 	0 	0 	0 	0 	0 	0 	0 	0 	0 	0 	0 	0 	0 	0 	0 	0 	0 	0 	0 	
maximum concurrent accesses to same row:
dram[0]:       192       192       192       192       192       192       192       192       192       192       192       192       192       192       192       192 
dram[1]:       192       192       192       192       192       192       192       192       192       192       192       192       192       192       192       192 
dram[2]:        96        96        96        96        96        96        96        96        96        96        96        96        96        96        96        96 
dram[3]:        96        96        96        96        96        96        96        96        96        96        96        96        96        96        96        96 
dram[4]:        96        96        96        96        96        96        96        96        96        96        96        96        96        96        96        96 
dram[5]:        96        96        96        96        96        96        96        96        96        96        96        96        96        96        96        96 
maximum service time to same row:
dram[0]:     11057     11066     12489     12582      8081      8257      9708      9341      9980     10064     10013     10225     10074      9895     10061     10560 
dram[1]:     11071     11055     12447     12813      8265      8055      9724      9759      9900     10014     10052      9965      9973     10042     10105     10142 
dram[2]:     11416     11270     12478     12493     10495     10296      9976     10175     10350     10342      9939     10388     10666     10518     10313     10303 
dram[3]:     11269     11075     12546     12554     10138     10685     10555      9827     10475     10496     10120     10454     10533     10147     10175     10862 
dram[4]:     11355     11076     12540     12485     10148     10340     10136     10179     10551     10674     10311     10438     10516     10082     10313     10295 
dram[5]:     11445     11351     12577     12451      9588     10576      9792     10367     10642     10255     10413     10424     10306     10221     10554     10820 
average row accesses per activate:
dram[0]: 18.179640 18.607363 18.666666 17.563953 23.007463 26.930435 24.314960 20.858109 13.085470 14.811594 14.591346 15.926316 26.247864 23.450382 18.618181 25.388430 
dram[1]: 16.664835 15.251256 16.988764 17.479769 24.887096 22.427536 24.117188 21.746479 11.933852 12.098814 14.325472 16.394594 21.787233 24.000000 18.070589 21.787233 
dram[2]:  8.792899  8.000000  8.809524  8.721893 10.000000 12.000000 11.117647  9.882353  7.262136  8.404494  8.601156  9.073171  8.720930 10.114865 11.976000 11.263158 
dram[3]:  8.551724  8.898204  9.000000  7.663212  9.620254  9.108434 12.813560 12.495868  8.081081  7.262136  8.131147  9.600000  9.602564 10.190476 10.053691 10.549295 
dram[4]:  9.054878  9.229814  8.482759  8.745563 10.517483 10.742857 10.647887 12.096000  8.805882  8.647399  7.699482  8.043243  9.381250 10.692857 11.492308 11.904762 
dram[5]:  8.839286  9.060976  8.727811  8.500000 11.936508 12.327868 12.292683 11.200000  8.081081  8.754386  7.831579  8.551724 10.862319  9.608974 12.380165 11.703125 
average row locality = 193626/15393 = 12.578835
number of total memory accesses made:
dram[0]:         0         0         0         0         0         0         0         0         0         0         0         0         0         0         0         0 
dram[1]:         0         0         0         0         0         0         0         0         0         0         0         0         0         0         0         0 
dram[2]:         0         0         0         0         0         0         0         0         0         0         0         0         0         0         0         0 
dram[3]:         0         0         0         0         0         0         0         0         0         0         0         0         0         0         0         0 
dram[4]:         0         0         0         0         0         0         0         0         0         0         0         0         0         0         0         0 
dram[5]:         0         0         0         0         0         0         0         0         0         0         0         0         0         0         0         0 
total accesses: 0
min_bank_accesses = 0!
min_chip_accesses = 0!
number of total read accesses:
dram[0]:         0         0         0         0         0         0         0         0         0         0         0         0         0         0         0         0 
dram[1]:         0         0         0         0         0         0         0         0         0         0         0         0         0         0         0         0 
dram[2]:         0         0         0         0         0         0         0         0         0         0         0         0         0         0         0         0 
dram[3]:         0         0         0         0         0         0         0         0         0         0         0         0         0         0         0         0 
dram[4]:         0         0         0         0         0         0         0         0         0         0         0         0         0         0         0         0 
dram[5]:         0         0         0         0         0         0         0         0         0         0         0         0         0         0         0         0 
total dram reads = 0
min_bank_accesses = 0!
min_chip_accesses = 0!
number of total write accesses:
dram[0]:       808       808       792       786       832       840       888       888       850       852       806       792       862       864       864       864 
dram[1]:       808       808       792       792       836       840       888       888       854       850       812       808       864       864       864       864 
dram[2]:       356       360       348       340       370       374       396       396       372       372       360       360       376       374       374       376 
dram[3]:       360       356       344       348       374       370       396       396       372       370       360       360       376       374       376       374 
dram[4]:       354       358       342       344       370       374       396       396       372       374       356       360       378       374       370       380 
dram[5]:       356       356       340       348       374       370       396       396       372       374       360       360       378       376       376       374 
total dram writes = 50442
bank skew: 888/340 = 2.61
chip skew: 13432/5898 = 2.28
average mf latency per bank:
dram[0]:       6526      6325      6198      6457      6389      6167      5584      5735      6253      6086      6071      6315      5949      5831      5684      5690
dram[1]:       5944      5864      5681      5839      5709      5540      5186      5362      5913      5723      5667      5831      5733      5661      5398      5443
dram[2]:       2793      2759      2894      2935      2791      2742      2613      2594      2677      2710      2788      2791      2650      2641      2660      2647
dram[3]:       2745      2760      2895      2837      2703      2708      2569      2535      2643      2687      2778      2767      2612      2609      2615      2639
dram[4]:       2797      2774      2902      2881      2690      2691      2588      2595      2665      2655      2801      2728      2607      2636      2661      2602
dram[5]:       2787      2785      2916      2846      2657      2694      2606      2592      2661      2634      2751      2717      2576      2612      2634      2647
maximum mf latency per bank:
dram[0]:       1106      1106      1146      1164      1159      1156      1299      1133      1136      1192      1106      1120      1076      1055      1085      1103
dram[1]:       1035      1008       957       944      1018      1013      1018      1012      1001       996      1052      1072       955       956       945       949
dram[2]:        329       357       334       396       618       463       648       648       343       344       347       322       357       349       387       335
dram[3]:        329       336       316       342       441       456       539       557       329       353       342       339       348       344       341       333
dram[4]:        331       375       329       351       484       490       626       631       331       368       347       325       337       350       367       368
dram[5]:        341       337       344       324       469       509       582       586       325       331       324       339       312       375       361       364
Memory Partition 0: 
Cache L2_bank_000:
MSHR contents

Cache L2_bank_001:
MSHR contents

In Dram Latency Queue (total = 0): 
DRAM[0]: 16 bks, busW=4 BL=8 CL=12, tRRD=6 tCCD=2, tRCD=12 tRAS=28 tRP=12 tRC=40
n_cmd=438225 n_nop=377560 n_act=2561 n_pre=2545 n_ref_event=0 n_req=48945 n_rd=40008 n_rd_L2_A=0 n_write=0 n_wr_bk=15635 bw_util=0.2539
n_activity=273790 dram_eff=0.4065
bk0: 2496a 420213i bk1: 2496a 421003i bk2: 2496a 420285i bk3: 2496a 420622i bk4: 2528a 419613i bk5: 2536a 420574i bk6: 2496a 420476i bk7: 2496a 419312i bk8: 2496a 417630i bk9: 2496a 418139i bk10: 2496a 418248i bk11: 2496a 418386i bk12: 2496a 419640i bk13: 2496a 420552i bk14: 2496a 419866i bk15: 2496a 420718i 

------------------------------------------------------------------------

Row_Buffer_Locality = 0.947676
Row_Buffer_Locality_read = 0.968481
Row_Buffer_Locality_write = 0.854537
Bank_Level_Parallism = 1.743271
Bank_Level_Parallism_Col = 1.693127
Bank_Level_Parallism_Ready = 1.116496
write_to_read_ratio_blp_rw_average = 0.589853
GrpLevelPara = 1.491651 

BW Util details:
bwutil = 0.253947 
total_CMD = 438225 
util_bw = 111286 
Wasted_Col = 84739 
Wasted_Row = 14407 
Idle = 227793 

BW Util Bottlenecks: 
RCDc_limit = 11269 
RCDWRc_limit = 6442 
WTRc_limit = 17564 
RTWc_limit = 79898 
CCDLc_limit = 24391 
rwq = 0 
CCDLc_limit_alone = 15707 
WTRc_limit_alone = 16612 
RTWc_limit_alone = 72166 

Commands details: 
total_CMD = 438225 
n_nop = 377560 
Read = 40008 
Write = 0 
L2_Alloc = 0 
L2_WB = 15635 
n_act = 2561 
n_pre = 2545 
n_ref = 0 
n_req = 48945 
total_req = 55643 

Dual Bus Interface Util: 
issued_total_row = 5106 
issued_total_col = 55643 
Row_Bus_Util =  0.011652 
CoL_Bus_Util = 0.126974 
Either_Row_CoL_Bus_Util = 0.138433 
Issued_on_Two_Bus_Simul_Util = 0.000192 
issued_two_Eff = 0.001385 
queue_avg = 0.610314 


dram_util_bins: 0 0 0 0 0 0 0 0 0 0
dram_eff_bins: 0 0 0 0 0 0 0 0 0 0
mrqq: max=23 avg=0.610314
Memory Partition 1: 
Cache L2_bank_002:
MSHR contents

Cache L2_bank_003:
MSHR contents

In Dram Latency Queue (total = 1): 
Ready @ 141807 -   mf: uid=2285163, sid4294967295:w4294967295, part=1, addr=0x7e0cdfe31e80, store, size=128, L2_WRBK  status = IN_PARTITION_DRAM_LATENCY_QUEUE (141707), 
DRAM[1]: 16 bks, busW=4 BL=8 CL=12, tRRD=6 tCCD=2, tRCD=12 tRAS=28 tRP=12 tRC=40
n_cmd=438225 n_nop=377147 n_act=2751 n_pre=2735 n_ref_event=0 n_req=48958 n_rd=40008 n_rd_L2_A=0 n_write=0 n_wr_bk=15666 bw_util=0.2541
n_activity=277164 dram_eff=0.4017
bk0: 2496a 419748i bk1: 2496a 419856i bk2: 2496a 421274i bk3: 2496a 420665i bk4: 2528a 419672i bk5: 2536a 420306i bk6: 2496a 419051i bk7: 2496a 419715i bk8: 2496a 417121i bk9: 2496a 417440i bk10: 2496a 418573i bk11: 2496a 418716i bk12: 2496a 418484i bk13: 2496a 419726i bk14: 2496a 419773i bk15: 2496a 420261i 

------------------------------------------------------------------------

Row_Buffer_Locality = 0.943809
Row_Buffer_Locality_read = 0.966207
Row_Buffer_Locality_write = 0.843687
Bank_Level_Parallism = 1.726864
Bank_Level_Parallism_Col = 1.679763
Bank_Level_Parallism_Ready = 1.117713
write_to_read_ratio_blp_rw_average = 0.585308
GrpLevelPara = 1.483438 

BW Util details:
bwutil = 0.254089 
total_CMD = 438225 
util_bw = 111348 
Wasted_Col = 87030 
Wasted_Row = 16174 
Idle = 223673 

BW Util Bottlenecks: 
RCDc_limit = 12055 
RCDWRc_limit = 7127 
WTRc_limit = 18139 
RTWc_limit = 79776 
CCDLc_limit = 24867 
rwq = 0 
CCDLc_limit_alone = 16125 
WTRc_limit_alone = 17205 
RTWc_limit_alone = 71968 

Commands details: 
total_CMD = 438225 
n_nop = 377147 
Read = 40008 
Write = 0 
L2_Alloc = 0 
L2_WB = 15666 
n_act = 2751 
n_pre = 2735 
n_ref = 0 
n_req = 48958 
total_req = 55674 

Dual Bus Interface Util: 
issued_total_row = 5486 
issued_total_col = 55674 
Row_Bus_Util =  0.012519 
CoL_Bus_Util = 0.127044 
Either_Row_CoL_Bus_Util = 0.139376 
Issued_on_Two_Bus_Simul_Util = 0.000187 
issued_two_Eff = 0.001343 
queue_avg = 0.654917 


dram_util_bins: 0 0 0 0 0 0 0 0 0 0
dram_eff_bins: 0 0 0 0 0 0 0 0 0 0
mrqq: max=24 avg=0.654917
Memory Partition 2: 
Cache L2_bank_004:
MSHR contents

Cache L2_bank_005:
MSHR contents

In Dram Latency Queue (total = 0): 
DRAM[2]: 16 bks, busW=4 BL=8 CL=12, tRRD=6 tCCD=2, tRCD=12 tRAS=28 tRP=12 tRC=40
n_cmd=438225 n_nop=406288 n_act=2558 n_pre=2542 n_ref_event=0 n_req=23944 n_rd=20008 n_rd_L2_A=0 n_write=0 n_wr_bk=6888 bw_util=0.1227
n_activity=178151 dram_eff=0.3019
bk0: 1248a 430620i bk1: 1248a 429727i bk2: 1248a 430235i bk3: 1248a 430032i bk4: 1272a 430332i bk5: 1264a 431028i bk6: 1248a 430908i bk7: 1248a 429684i bk8: 1248a 429124i bk9: 1248a 429497i bk10: 1248a 429618i bk11: 1248a 429802i bk12: 1248a 429695i bk13: 1248a 430394i bk14: 1248a 431358i bk15: 1248a 431068i 

------------------------------------------------------------------------

Row_Buffer_Locality = 0.893167
Row_Buffer_Locality_read = 0.937925
Row_Buffer_Locality_write = 0.665650
Bank_Level_Parallism = 1.364007
Bank_Level_Parallism_Col = 1.281173
Bank_Level_Parallism_Ready = 1.036346
write_to_read_ratio_blp_rw_average = 0.508542
GrpLevelPara = 1.216436 

BW Util details:
bwutil = 0.122750 
total_CMD = 438225 
util_bw = 53792 
Wasted_Col = 47015 
Wasted_Row = 19397 
Idle = 318021 

BW Util Bottlenecks: 
RCDc_limit = 12854 
RCDWRc_limit = 7779 
WTRc_limit = 6522 
RTWc_limit = 25790 
CCDLc_limit = 9794 
rwq = 0 
CCDLc_limit_alone = 7899 
WTRc_limit_alone = 6295 
RTWc_limit_alone = 24122 

Commands details: 
total_CMD = 438225 
n_nop = 406288 
Read = 20008 
Write = 0 
L2_Alloc = 0 
L2_WB = 6888 
n_act = 2558 
n_pre = 2542 
n_ref = 0 
n_req = 23944 
total_req = 26896 

Dual Bus Interface Util: 
issued_total_row = 5100 
issued_total_col = 26896 
Row_Bus_Util =  0.011638 
CoL_Bus_Util = 0.061375 
Either_Row_CoL_Bus_Util = 0.072878 
Issued_on_Two_Bus_Simul_Util = 0.000135 
issued_two_Eff = 0.001847 
queue_avg = 0.292510 


dram_util_bins: 0 0 0 0 0 0 0 0 0 0
dram_eff_bins: 0 0 0 0 0 0 0 0 0 0
mrqq: max=16 avg=0.29251
Memory Partition 3: 
Cache L2_bank_006:
MSHR contents

Cache L2_bank_007:
MSHR contents

In Dram Latency Queue (total = 0): 
DRAM[3]: 16 bks, busW=4 BL=8 CL=12, tRRD=6 tCCD=2, tRCD=12 tRAS=28 tRP=12 tRC=40
n_cmd=438225 n_nop=406217 n_act=2584 n_pre=2568 n_ref_event=0 n_req=23944 n_rd=20008 n_rd_L2_A=0 n_write=0 n_wr_bk=6889 bw_util=0.1228
n_activity=179294 dram_eff=0.3
bk0: 1248a 430262i bk1: 1248a 430377i bk2: 1248a 430124i bk3: 1248a 429203i bk4: 1272a 430058i bk5: 1264a 429904i bk6: 1248a 430561i bk7: 1248a 431099i bk8: 1248a 429419i bk9: 1248a 428807i bk10: 1248a 429336i bk11: 1248a 429951i bk12: 1248a 430403i bk13: 1248a 430685i bk14: 1248a 431028i bk15: 1248a 430415i 

------------------------------------------------------------------------

Row_Buffer_Locality = 0.892081
Row_Buffer_Locality_read = 0.937425
Row_Buffer_Locality_write = 0.661585
Bank_Level_Parallism = 1.364100
Bank_Level_Parallism_Col = 1.293172
Bank_Level_Parallism_Ready = 1.038565
write_to_read_ratio_blp_rw_average = 0.513341
GrpLevelPara = 1.225512 

BW Util details:
bwutil = 0.122754 
total_CMD = 438225 
util_bw = 53794 
Wasted_Col = 46726 
Wasted_Row = 20886 
Idle = 316819 

BW Util Bottlenecks: 
RCDc_limit = 13087 
RCDWRc_limit = 7840 
WTRc_limit = 5715 
RTWc_limit = 26224 
CCDLc_limit = 9713 
rwq = 0 
CCDLc_limit_alone = 7924 
WTRc_limit_alone = 5558 
RTWc_limit_alone = 24592 

Commands details: 
total_CMD = 438225 
n_nop = 406217 
Read = 20008 
Write = 0 
L2_Alloc = 0 
L2_WB = 6889 
n_act = 2584 
n_pre = 2568 
n_ref = 0 
n_req = 23944 
total_req = 26897 

Dual Bus Interface Util: 
issued_total_row = 5152 
issued_total_col = 26897 
Row_Bus_Util =  0.011757 
CoL_Bus_Util = 0.061377 
Either_Row_CoL_Bus_Util = 0.073040 
Issued_on_Two_Bus_Simul_Util = 0.000094 
issued_two_Eff = 0.001281 
queue_avg = 0.294226 


dram_util_bins: 0 0 0 0 0 0 0 0 0 0
dram_eff_bins: 0 0 0 0 0 0 0 0 0 0
mrqq: max=13 avg=0.294226
Memory Partition 4: 
Cache L2_bank_008:
MSHR contents

Cache L2_bank_009:
MSHR contents

In Dram Latency Queue (total = 0): 
DRAM[4]: 16 bks, busW=4 BL=8 CL=12, tRRD=6 tCCD=2, tRCD=12 tRAS=28 tRP=12 tRC=40
n_cmd=438225 n_nop=406432 n_act=2495 n_pre=2479 n_ref_event=0 n_req=23916 n_rd=19984 n_rd_L2_A=0 n_write=0 n_wr_bk=6881 bw_util=0.1226
n_activity=179573 dram_eff=0.2992
bk0: 1248a 430264i bk1: 1248a 430159i bk2: 1248a 430338i bk3: 1248a 429767i bk4: 1256a 430794i bk5: 1256a 430905i bk6: 1248a 430194i bk7: 1248a 431115i bk8: 1248a 429327i bk9: 1248a 429981i bk10: 1248a 429310i bk11: 1248a 429387i bk12: 1248a 430012i bk13: 1248a 430182i bk14: 1248a 431157i bk15: 1248a 430874i 

------------------------------------------------------------------------

Row_Buffer_Locality = 0.895677
Row_Buffer_Locality_read = 0.939552
Row_Buffer_Locality_write = 0.672686
Bank_Level_Parallism = 1.352530
Bank_Level_Parallism_Col = 1.288364
Bank_Level_Parallism_Ready = 1.040006
write_to_read_ratio_blp_rw_average = 0.521566
GrpLevelPara = 1.214139 

BW Util details:
bwutil = 0.122608 
total_CMD = 438225 
util_bw = 53730 
Wasted_Col = 46870 
Wasted_Row = 20300 
Idle = 317325 

BW Util Bottlenecks: 
RCDc_limit = 12800 
RCDWRc_limit = 7718 
WTRc_limit = 5374 
RTWc_limit = 26705 
CCDLc_limit = 9799 
rwq = 0 
CCDLc_limit_alone = 7770 
WTRc_limit_alone = 5172 
RTWc_limit_alone = 24878 

Commands details: 
total_CMD = 438225 
n_nop = 406432 
Read = 19984 
Write = 0 
L2_Alloc = 0 
L2_WB = 6881 
n_act = 2495 
n_pre = 2479 
n_ref = 0 
n_req = 23916 
total_req = 26865 

Dual Bus Interface Util: 
issued_total_row = 4974 
issued_total_col = 26865 
Row_Bus_Util =  0.011350 
CoL_Bus_Util = 0.061304 
Either_Row_CoL_Bus_Util = 0.072549 
Issued_on_Two_Bus_Simul_Util = 0.000105 
issued_two_Eff = 0.001447 
queue_avg = 0.281118 


dram_util_bins: 0 0 0 0 0 0 0 0 0 0
dram_eff_bins: 0 0 0 0 0 0 0 0 0 0
mrqq: max=16 avg=0.281118
Memory Partition 5: 
Cache L2_bank_010:
MSHR contents

Cache L2_bank_011:
MSHR contents

In Dram Latency Queue (total = 0): 
DRAM[5]: 16 bks, busW=4 BL=8 CL=12, tRRD=6 tCCD=2, tRCD=12 tRAS=28 tRP=12 tRC=40
n_cmd=438225 n_nop=406523 n_act=2444 n_pre=2428 n_ref_event=0 n_req=23919 n_rd=19984 n_rd_L2_A=0 n_write=0 n_wr_bk=6888 bw_util=0.1226
n_activity=179833 dram_eff=0.2989
bk0: 1248a 430540i bk1: 1248a 430370i bk2: 1248a 430310i bk3: 1248a 429684i bk4: 1256a 431162i bk5: 1256a 431385i bk6: 1248a 430861i bk7: 1248a 431048i bk8: 1248a 429184i bk9: 1248a 429578i bk10: 1248a 429536i bk11: 1248a 429539i bk12: 1248a 430623i bk13: 1248a 430560i bk14: 1248a 430863i bk15: 1248a 430785i 

------------------------------------------------------------------------

Row_Buffer_Locality = 0.897822
Row_Buffer_Locality_read = 0.940402
Row_Buffer_Locality_write = 0.681576
Bank_Level_Parallism = 1.342371
Bank_Level_Parallism_Col = 1.278125
Bank_Level_Parallism_Ready = 1.034643
write_to_read_ratio_blp_rw_average = 0.520434
GrpLevelPara = 1.218966 

BW Util details:
bwutil = 0.122640 
total_CMD = 438225 
util_bw = 53744 
Wasted_Col = 46733 
Wasted_Row = 19667 
Idle = 318081 

BW Util Bottlenecks: 
RCDc_limit = 12542 
RCDWRc_limit = 7552 
WTRc_limit = 5537 
RTWc_limit = 26388 
CCDLc_limit = 9683 
rwq = 0 
CCDLc_limit_alone = 7779 
WTRc_limit_alone = 5369 
RTWc_limit_alone = 24652 

Commands details: 
total_CMD = 438225 
n_nop = 406523 
Read = 19984 
Write = 0 
L2_Alloc = 0 
L2_WB = 6888 
n_act = 2444 
n_pre = 2428 
n_ref = 0 
n_req = 23919 
total_req = 26872 

Dual Bus Interface Util: 
issued_total_row = 4872 
issued_total_col = 26872 
Row_Bus_Util =  0.011118 
CoL_Bus_Util = 0.061320 
Either_Row_CoL_Bus_Util = 0.072342 
Issued_on_Two_Bus_Simul_Util = 0.000096 
issued_two_Eff = 0.001325 
queue_avg = 0.270261 


dram_util_bins: 0 0 0 0 0 0 0 0 0 0
dram_eff_bins: 0 0 0 0 0 0 0 0 0 0
mrqq: max=11 avg=0.270261

========= L2 cache stats =========
L2_cache_bank[0]: Access = 89843, Miss = 36147, Miss_rate = 0.402, Pending_hits = 4481, Reservation_fails = 0
L2_cache_bank[1]: Access = 90662, Miss = 36366, Miss_rate = 0.401, Pending_hits = 3159, Reservation_fails = 26
L2_cache_bank[2]: Access = 89846, Miss = 36150, Miss_rate = 0.402, Pending_hits = 4421, Reservation_fails = 0
L2_cache_bank[3]: Access = 90662, Miss = 36366, Miss_rate = 0.401, Pending_hits = 3475, Reservation_fails = 43
L2_cache_bank[4]: Access = 45027, Miss = 18083, Miss_rate = 0.402, Pending_hits = 2439, Reservation_fails = 0
L2_cache_bank[5]: Access = 45291, Miss = 18183, Miss_rate = 0.401, Pending_hits = 1983, Reservation_fails = 46
L2_cache_bank[6]: Access = 45024, Miss = 18080, Miss_rate = 0.402, Pending_hits = 2287, Reservation_fails = 0
L2_cache_bank[7]: Access = 45291, Miss = 18183, Miss_rate = 0.401, Pending_hits = 2196, Reservation_fails = 11
L2_cache_bank[8]: Access = 44906, Miss = 18038, Miss_rate = 0.402, Pending_hits = 2345, Reservation_fails = 0
L2_cache_bank[9]: Access = 45271, Miss = 18183, Miss_rate = 0.402, Pending_hits = 2025, Reservation_fails = 0
L2_cache_bank[10]: Access = 44906, Miss = 18038, Miss_rate = 0.402, Pending_hits = 2137, Reservation_fails = 0
L2_cache_bank[11]: Access = 45271, Miss = 18183, Miss_rate = 0.402, Pending_hits = 2116, Reservation_fails = 30
L2_total_cache_accesses = 722000
L2_total_cache_misses = 290000
L2_total_cache_miss_rate = 0.4017
L2_total_cache_pending_hits = 33064
L2_total_cache_reservation_fails = 156
L2_total_cache_breakdown:
	L2_cache_stats_breakdown[GLOBAL_ACC_R][HIT] = 398936
	L2_cache_stats_breakdown[GLOBAL_ACC_R][HIT_RESERVED] = 33064
	L2_cache_stats_breakdown[GLOBAL_ACC_R][MISS] = 40000
	L2_cache_stats_breakdown[GLOBAL_ACC_R][RESERVATION_FAIL] = 156
	L2_cache_stats_breakdown[GLOBAL_ACC_R][SECTOR_MISS] = 120000
	L2_cache_stats_breakdown[GLOBAL_ACC_R][MSHR_HIT] = 33064
	L2_cache_stats_breakdown[LOCAL_ACC_R][HIT] = 0
	L2_cache_stats_breakdown[LOCAL_ACC_R][HIT_RESERVED] = 0
	L2_cache_stats_breakdown[LOCAL_ACC_R][MISS] = 0
	L2_cache_stats_breakdown[LOCAL_ACC_R][RESERVATION_FAIL] = 0
	L2_cache_stats_breakdown[LOCAL_ACC_R][SECTOR_MISS] = 0
	L2_cache_stats_breakdown[LOCAL_ACC_R][MSHR_HIT] = 0
	L2_cache_stats_breakdown[CONST_ACC_R][HIT] = 0
	L2_cache_stats_breakdown[CONST_ACC_R][HIT_RESERVED] = 0
	L2_cache_stats_breakdown[CONST_ACC_R][MISS] = 0
	L2_cache_stats_breakdown[CONST_ACC_R][RESERVATION_FAIL] = 0
	L2_cache_stats_breakdown[CONST_ACC_R][SECTOR_MISS] = 0
	L2_cache_stats_breakdown[CONST_ACC_R][MSHR_HIT] = 0
	L2_cache_stats_breakdown[TEXTURE_ACC_R][HIT] = 0
	L2_cache_stats_breakdown[TEXTURE_ACC_R][HIT_RESERVED] = 0
	L2_cache_stats_breakdown[TEXTURE_ACC_R][MISS] = 0
	L2_cache_stats_breakdown[TEXTURE_ACC_R][RESERVATION_FAIL] = 0
	L2_cache_stats_breakdown[TEXTURE_ACC_R][SECTOR_MISS] = 0
	L2_cache_stats_breakdown[TEXTURE_ACC_R][MSHR_HIT] = 0
	L2_cache_stats_breakdown[GLOBAL_ACC_W][HIT] = 0
	L2_cache_stats_breakdown[GLOBAL_ACC_W][HIT_RESERVED] = 0
	L2_cache_stats_breakdown[GLOBAL_ACC_W][MISS] = 40000
	L2_cache_stats_breakdown[GLOBAL_ACC_W][RESERVATION_FAIL] = 0
	L2_cache_stats_breakdown[GLOBAL_ACC_W][SECTOR_MISS] = 90000
	L2_cache_stats_breakdown[GLOBAL_ACC_W][MSHR_HIT] = 0
	L2_cache_stats_breakdown[LOCAL_ACC_W][HIT] = 0
	L2_cache_stats_breakdown[LOCAL_ACC_W][HIT_RESERVED] = 0
	L2_cache_stats_breakdown[LOCAL_ACC_W][MISS] = 0
	L2_cache_stats_breakdown[LOCAL_ACC_W][RESERVATION_FAIL] = 0
	L2_cache_stats_breakdown[LOCAL_ACC_W][SECTOR_MISS] = 0
	L2_cache_stats_breakdown[LOCAL_ACC_W][MSHR_HIT] = 0
	L2_cache_stats_breakdown[L1_WRBK_ACC][HIT] = 0
	L2_cache_stats_breakdown[L1_WRBK_ACC][HIT_RESERVED] = 0
	L2_cache_stats_breakdown[L1_WRBK_ACC][MISS] = 0
	L2_cache_stats_breakdown[L1_WRBK_ACC][RESERVATION_FAIL] = 0
	L2_cache_stats_breakdown[L1_WRBK_ACC][SECTOR_MISS] = 0
	L2_cache_stats_breakdown[L1_WRBK_ACC][MSHR_HIT] = 0
	L2_cache_stats_breakdown[L2_WRBK_ACC][HIT] = 0
	L2_cache_stats_breakdown[L2_WRBK_ACC][HIT_RESERVED] = 0
	L2_cache_stats_breakdown[L2_WRBK_ACC][MISS] = 0
	L2_cache_stats_breakdown[L2_WRBK_ACC][RESERVATION_FAIL] = 0
	L2_cache_stats_breakdown[L2_WRBK_ACC][SECTOR_MISS] = 0
	L2_cache_stats_breakdown[L2_WRBK_ACC][MSHR_HIT] = 0
	L2_cache_stats_breakdown[INST_ACC_R][HIT] = 0
	L2_cache_stats_breakdown[INST_ACC_R][HIT_RESERVED] = 0
	L2_cache_stats_breakdown[INST_ACC_R][MISS] = 0
	L2_cache_stats_breakdown[INST_ACC_R][RESERVATION_FAIL] = 0
	L2_cache_stats_breakdown[INST_ACC_R][SECTOR_MISS] = 0
	L2_cache_stats_breakdown[INST_ACC_R][MSHR_HIT] = 0
	L2_cache_stats_breakdown[L1_WR_ALLOC_R][HIT] = 0
	L2_cache_stats_breakdown[L1_WR_ALLOC_R][HIT_RESERVED] = 0
	L2_cache_stats_breakdown[L1_WR_ALLOC_R][MISS] = 0
	L2_cache_stats_breakdown[L1_WR_ALLOC_R][RESERVATION_FAIL] = 0
	L2_cache_stats_breakdown[L1_WR_ALLOC_R][SECTOR_MISS] = 0
	L2_cache_stats_breakdown[L1_WR_ALLOC_R][MSHR_HIT] = 0
	L2_cache_stats_breakdown[L2_WR_ALLOC_R][HIT] = 0
	L2_cache_stats_breakdown[L2_WR_ALLOC_R][HIT_RESERVED] = 0
	L2_cache_stats_breakdown[L2_WR_ALLOC_R][MISS] = 0
	L2_cache_stats_breakdown[L2_WR_ALLOC_R][RESERVATION_FAIL] = 0
	L2_cache_stats_breakdown[L2_WR_ALLOC_R][SECTOR_MISS] = 0
	L2_cache_stats_breakdown[L2_WR_ALLOC_R][MSHR_HIT] = 0
	L2_cache_stats_breakdown[GLOBAL_ACC_R][TOTAL_ACCESS] = 592000
	L2_cache_stats_breakdown[GLOBAL_ACC_W][TOTAL_ACCESS] = 130000
L2_total_cache_reservation_fail_breakdown:
	L2_cache_stats_fail_breakdown[GLOBAL_ACC_R][MSHR_MERGE_ENRTY_FAIL] = 156
L2_cache_data_port_util = 0.264
L2_cache_fill_port_util = 0.094

icnt_total_pkts_mem_to_simt=722000
icnt_total_pkts_simt_to_mem=278000
LD_mem_lat_dist  0 0 0 0 0 0 0 0 0 0 0 0 0 0 0 0 0 0 0 0 0 0 0 0 0 0 0
ST_mem_lat_dist  0 0 0 0 0 0 0 0 0 0 0 0 0 0 0 0 0 0 0 0 0 0 0 0 0 0 0
----------------------------Interconnect-DETAILS--------------------------------
Req_Network_injected_packets_num = 278000
Req_Network_cycles = 141715
Req_Network_injected_packets_per_cycle =       1.9617 
Req_Network_conflicts_per_cycle =       0.3088
Req_Network_conflicts_per_cycle_util =       0.3550
Req_Bank_Level_Parallism =       2.2550
Req_Network_in_buffer_full_per_cycle =       0.0000
Req_Network_in_buffer_avg_util =       0.1044
Req_Network_out_buffer_full_per_cycle =       0.0000
Req_Network_out_buffer_avg_util =       0.1674

Reply_Network_injected_packets_num = 722000
Reply_Network_cycles = 141715
Reply_Network_injected_packets_per_cycle =        5.0947
Reply_Network_conflicts_per_cycle =        3.4321
Reply_Network_conflicts_per_cycle_util =       3.5830
Reply_Bank_Level_Parallism =       5.3187
Reply_Network_in_buffer_full_per_cycle =       0.0161
Reply_Network_in_buffer_avg_util =      57.6267
Reply_Network_out_buffer_full_per_cycle =       0.0000
Reply_Network_out_buffer_avg_util =       0.3396
----------------------------END-of-Interconnect-DETAILS-------------------------


gpgpu_simulation_time = 0 days, 0 hrs, 0 min, 19 sec (19 sec)
gpgpu_simulation_rate = 2771347 (inst/sec)
gpgpu_simulation_rate = 7458 (cycle/sec)
gpgpu_silicon_slowdown = 151783x
GPGPU-Sim: *** simulation thread exiting ***
GPGPU-Sim: *** exit detected ***
