Accel-Sim [build accelsim-commit-9be0e3c_modified_0.0_26-05-01-16-54-20]

        *** GPGPU-Sim Simulator Version 4.2.0  [build gpgpu-sim_git-commit-6c3cf4ff_modified_0.0] ***


GPGPU-Sim: Configuration options:

-save_embedded_ptx                      0 # saves ptx files embedded in binary as <n>.ptx
-keep                                   0 # keep intermediate files created by GPGPU-Sim when interfacing with external programs
-gpgpu_ptx_save_converted_ptxplus                    0 # Saved converted ptxplus to a file
-gpgpu_occupancy_sm_number                   86 # The SM number to pass to ptxas when getting register usage for computing GPU occupancy. This parameter is required in the config.
-ptx_opcode_latency_int           4,4,4,4,21 # Opcode latencies for integers <ADD,MAX,MUL,MAD,DIV,SHFL>Default 1,1,19,25,145,32
-ptx_opcode_latency_fp           4,4,4,4,39 # Opcode latencies for single precision floating points <ADD,MAX,MUL,MAD,DIV>Default 1,1,1,1,30
-ptx_opcode_latency_dp      64,64,64,64,330 # Opcode latencies for double precision floating points <ADD,MAX,MUL,MAD,DIV>Default 8,8,8,8,335
-ptx_opcode_latency_sfu                   21 # Opcode latencies for SFU instructionsDefault 8
-ptx_opcode_latency_tesnor                   64 # Opcode latencies for Tensor instructionsDefault 64
-ptx_opcode_initiation_int            2,2,2,2,2 # Opcode initiation intervals for integers <ADD,MAX,MUL,MAD,DIV,SHFL>Default 1,1,4,4,32,4
-ptx_opcode_initiation_fp            1,1,1,1,2 # Opcode initiation intervals for single precision floating points <ADD,MAX,MUL,MAD,DIV>Default 1,1,1,1,5
-ptx_opcode_initiation_dp      64,64,64,64,130 # Opcode initiation intervals for double precision floating points <ADD,MAX,MUL,MAD,DIV>Default 8,8,8,8,130
-ptx_opcode_initiation_sfu                    8 # Opcode initiation intervals for sfu instructionsDefault 8
-ptx_opcode_initiation_tensor                   64 # Opcode initiation intervals for tensor instructionsDefault 64
-cdp_latency         7200,8000,100,12000,1600 # CDP API latency <cudaStreamCreateWithFlags, cudaGetParameterBufferV2_init_perWarp, cudaGetParameterBufferV2_perKernel, cudaLaunchDeviceV2_init_perWarp, cudaLaunchDevicV2_perKernel>Default 7200,8000,100,12000,1600
-network_mode                           2 # Interconnection network mode
-inter_config_file                   mesh # Interconnection network config file
-icnt_in_buffer_limit                  512 # in_buffer_limit
-icnt_out_buffer_limit                  512 # out_buffer_limit
-icnt_subnets                           2 # subnets
-icnt_arbiter_algo                      1 # arbiter_algo
-icnt_verbose                           0 # inct_verbose
-icnt_grant_cycles                      1 # grant_cycles
-gpgpu_ptx_use_cuobjdump                    1 # Use cuobjdump to extract ptx and sass from binaries
-gpgpu_experimental_lib_support                    0 # Try to extract code from cuda libraries [Broken because of unknown cudaGetExportTable]
-checkpoint_option                      0 #  checkpointing flag (0 = no checkpoint)
-checkpoint_kernel                      1 #  checkpointing during execution of which kernel (1- 1st kernel)
-checkpoint_CTA                         0 #  checkpointing after # of CTA (< less than total CTA)
-resume_option                          0 #  resume flag (0 = no resume)
-resume_kernel                          0 #  Resume from which kernel (1= 1st kernel)
-resume_CTA                             0 #  resume from which CTA 
-checkpoint_CTA_t                       0 #  resume from which CTA 
-checkpoint_insn_Y                      0 #  resume from which CTA 
-gpgpu_ptx_convert_to_ptxplus                    0 # Convert SASS (native ISA) to ptxplus and run ptxplus
-gpgpu_ptx_force_max_capability                   86 # Force maximum compute capability
-gpgpu_ptx_inst_debug_to_file                    0 # Dump executed instructions' debug information to file
-gpgpu_ptx_inst_debug_file       inst_debug.txt # Executed instructions' debug output file
-gpgpu_ptx_inst_debug_thread_uid                    1 # Thread UID for executed instructions' debug output
-gpgpu_simd_model                       1 # 1 = post-dominator
-gpgpu_shader_core_pipeline              1536:32 # shader core pipeline config, i.e., {<nthread>:<warpsize>}
-gpgpu_tex_cache:l1  N:4:128:256,L:R:m:N:L,T:512:8,128:2 # per-shader L1 texture cache  (READ-ONLY) config  {<nsets>:<bsize>:<assoc>,<rep>:<wr>:<alloc>:<wr_alloc>,<mshr>:<N>:<merge>,<mq>:<rf>}
-gpgpu_const_cache:l1 N:128:64:8,L:R:f:N:L,S:2:64,4 # per-shader L1 constant memory cache  (READ-ONLY) config  {<nsets>:<bsize>:<assoc>,<rep>:<wr>:<alloc>:<wr_alloc>,<mshr>:<N>:<merge>,<mq>} 
-gpgpu_cache:il1     N:64:128:16,L:R:f:N:L,S:2:48,4 # shader L1 instruction cache config  {<sector?>:<nsets>:<bsize>:<assoc>,<rep>:<wr>:<alloc>:<wr_alloc>:<set_index_fn>,<mshr>:<N>:<merge>,<mq>} 
-gpgpu_cache:dl1     N:32:128:4,L:L:m:N:H,S:64:8,8 # per-shader L1 data cache config  {<sector?>:<nsets>:<bsize>:<assoc>,<rep>:<wr>:<alloc>:<wr_alloc>:<set_index_fn>,<mshr>:<N>:<merge>,<mq>:<fifo_entry>,<data_port_width> | none}
-gpgpu_l1_cache_write_ratio                    0 # L1D write ratio
-gpgpu_l1_banks                         1 # The number of L1 cache banks
-gpgpu_l1_banks_byte_interleaving                   32 # l1 banks byte interleaving granularity
-gpgpu_l1_banks_hashing_function                    0 # l1 banks hashing function
-gpgpu_l1_latency                      35 # L1 Hit Latency
-gpgpu_smem_latency                    29 # smem Latency
-gpgpu_cache:dl1PrefL1                 none # per-shader L1 data cache config  {<sector?>:<nsets>:<bsize>:<assoc>,<rep>:<wr>:<alloc>:<wr_alloc>:<set_index_fn>,<mshr>:<N>:<merge>,<mq>:<fifo_entry>,<data_port_width> | none}
-gpgpu_cache:dl1PrefShared                 none # per-shader L1 data cache config  {<sector?>:<nsets>:<bsize>:<assoc>,<rep>:<wr>:<alloc>:<wr_alloc>:<set_index_fn>,<mshr>:<N>:<merge>,<mq>:<fifo_entry>,<data_port_width> | none}
-gpgpu_gmem_skip_L1D                    0 # global memory access skip L1D cache (implements -Xptxas -dlcm=cg, default=no skip)
-gpgpu_perfect_mem                      0 # enable perfect memory mode (no cache miss)
-n_regfile_gating_group                    4 # group of lanes that should be read/written together)
-gpgpu_clock_gated_reg_file                    0 # enable clock gated reg file for power calculations
-gpgpu_clock_gated_lanes                    0 # enable clock gated lanes for power calculations
-gpgpu_shader_registers                65536 # Number of registers per shader core. Limits number of concurrent CTAs. (default 8192)
-gpgpu_registers_per_block                65536 # Maximum number of registers per CTA. (default 8192)
-gpgpu_ignore_resources_limitation                    0 # gpgpu_ignore_resources_limitation (default 0)
-gpgpu_shader_cta                       8 # Maximum number of concurrent CTAs in shader (default 32)
-gpgpu_num_cta_barriers                   16 # Maximum number of named barriers per CTA (default 16)
-gpgpu_n_clusters                      15 # number of processing clusters
-gpgpu_n_cores_per_cluster                    1 # number of simd cores per cluster
-gpgpu_n_cluster_ejection_buffer_size                   32 # number of packets in ejection buffer
-gpgpu_n_ldst_response_buffer_size                    2 # number of response packets in ld/st unit ejection buffer
-gpgpu_shmem_per_block                49152 # Size of shared memory per thread block or CTA (default 48kB)
-gpgpu_shmem_size                  102400 # Size of shared memory per shader core (default 16kB)
-gpgpu_shmem_option                     0 # Option list of shared memory sizes
-gpgpu_unified_l1d_size                    0 # Size of unified data cache(L1D + shared memory) in KB
-gpgpu_adaptive_cache_config                    0 # adaptive_cache_config
-gpgpu_shmem_sizeDefault               102400 # Size of shared memory per shader core (default 16kB)
-gpgpu_shmem_size_PrefL1                16384 # Size of shared memory per shader core (default 16kB)
-gpgpu_shmem_size_PrefShared                16384 # Size of shared memory per shader core (default 16kB)
-gpgpu_shmem_num_banks                   32 # Number of banks in the shared memory in each shader core (default 16)
-gpgpu_shmem_limited_broadcast                    0 # Limit shared memory to do one broadcast per cycle (default on)
-gpgpu_shmem_warp_parts                    1 # Number of portions a warp is divided into for shared memory bank conflict check 
-gpgpu_mem_unit_ports                    1 # The number of memory transactions allowed per core cycle
-gpgpu_shmem_warp_parts                    1 # Number of portions a warp is divided into for shared memory bank conflict check 
-gpgpu_warpdistro_shader                   -1 # Specify which shader core to collect the warp size distribution from
-gpgpu_warp_issue_shader                    0 # Specify which shader core to collect the warp issue distribution from
-gpgpu_local_mem_map                    1 # Mapping from local memory space address to simulated GPU physical address space (default = enabled)
-gpgpu_num_reg_banks                    8 # Number of register banks (default = 8)
-gpgpu_reg_bank_use_warp_id                    0 # Use warp ID in mapping registers to banks (default = off)
-gpgpu_sub_core_model                    1 # Sub Core Volta/Pascal model (default = off)
-gpgpu_enable_specialized_operand_collector                    0 # enable_specialized_operand_collector
-gpgpu_operand_collector_num_units_sp                    4 # number of collector units (default = 4)
-gpgpu_operand_collector_num_units_dp                    0 # number of collector units (default = 0)
-gpgpu_operand_collector_num_units_sfu                    4 # number of collector units (default = 4)
-gpgpu_operand_collector_num_units_int                    0 # number of collector units (default = 0)
-gpgpu_operand_collector_num_units_tensor_core                    4 # number of collector units (default = 4)
-gpgpu_operand_collector_num_units_mem                    2 # number of collector units (default = 2)
-gpgpu_operand_collector_num_units_gen                    8 # number of collector units (default = 0)
-gpgpu_operand_collector_num_in_ports_sp                    1 # number of collector unit in ports (default = 1)
-gpgpu_operand_collector_num_in_ports_dp                    0 # number of collector unit in ports (default = 0)
-gpgpu_operand_collector_num_in_ports_sfu                    1 # number of collector unit in ports (default = 1)
-gpgpu_operand_collector_num_in_ports_int                    0 # number of collector unit in ports (default = 0)
-gpgpu_operand_collector_num_in_ports_tensor_core                    1 # number of collector unit in ports (default = 1)
-gpgpu_operand_collector_num_in_ports_mem                    1 # number of collector unit in ports (default = 1)
-gpgpu_operand_collector_num_in_ports_gen                    8 # number of collector unit in ports (default = 0)
-gpgpu_operand_collector_num_out_ports_sp                    1 # number of collector unit in ports (default = 1)
-gpgpu_operand_collector_num_out_ports_dp                    0 # number of collector unit in ports (default = 0)
-gpgpu_operand_collector_num_out_ports_sfu                    1 # number of collector unit in ports (default = 1)
-gpgpu_operand_collector_num_out_ports_int                    0 # number of collector unit in ports (default = 0)
-gpgpu_operand_collector_num_out_ports_tensor_core                    1 # number of collector unit in ports (default = 1)
-gpgpu_operand_collector_num_out_ports_mem                    1 # number of collector unit in ports (default = 1)
-gpgpu_operand_collector_num_out_ports_gen                    8 # number of collector unit in ports (default = 0)
-gpgpu_coalesce_arch                   86 # Coalescing arch (GT200 = 13, Fermi = 20)
-gpgpu_num_sched_per_core                    4 # Number of warp schedulers per core
-gpgpu_max_insn_issue_per_warp                    1 # Max number of instructions that can be issued per warp in one cycle by scheduler (either 1 or 2)
-gpgpu_dual_issue_diff_exec_units                    1 # should dual issue use two different execution unit resources (Default = 1)
-gpgpu_simt_core_sim_order                    1 # Select the simulation order of cores in a cluster (0=Fix, 1=Round-Robin)
-gpgpu_pipeline_widths 4,4,4,4,4,4,4,4,4,4,8,4,4 # Pipeline widths ID_OC_SP,ID_OC_DP,ID_OC_INT,ID_OC_SFU,ID_OC_MEM,OC_EX_SP,OC_EX_DP,OC_EX_INT,OC_EX_SFU,OC_EX_MEM,EX_WB,ID_OC_TENSOR_CORE,OC_EX_TENSOR_CORE
-gpgpu_tensor_core_avail                    1 # Tensor Core Available (default=0)
-gpgpu_num_sp_units                     4 # Number of SP units (default=1)
-gpgpu_num_dp_units                     4 # Number of DP units (default=0)
-gpgpu_num_int_units                    4 # Number of INT units (default=0)
-gpgpu_num_sfu_units                    4 # Number of SF units (default=1)
-gpgpu_num_tensor_core_units                    4 # Number of tensor_core units (default=1)
-gpgpu_num_mem_units                    1 # Number if ldst units (default=1) WARNING: not hooked up to anything
-gpgpu_scheduler                      lrr # Scheduler configuration: < lrr | gto | two_level_active > If two_level_active:<num_active_warps>:<inner_prioritization>:<outer_prioritization>For complete list of prioritization values see shader.h enum scheduler_prioritization_typeDefault: gto
-gpgpu_concurrent_kernel_sm                    0 # Support concurrent kernels on a SM (default = disabled)
-gpgpu_perfect_inst_const_cache                    1 # perfect inst and const cache mode, so all inst and const hits in the cache(default = disabled)
-gpgpu_inst_fetch_throughput                    4 # the number of fetched intruction per warp each cycle
-gpgpu_reg_file_port_throughput                    2 # the number ports of the register file
-specialized_unit_1         1,4,4,4,4,BRA # specialized unit config {<enabled>,<num_units>:<latency>:<initiation>,<ID_OC_SPEC>:<OC_EX_SPEC>,<NAME>}
-specialized_unit_2       1,4,200,4,4,TEX # specialized unit config {<enabled>,<num_units>:<latency>:<initiation>,<ID_OC_SPEC>:<OC_EX_SPEC>,<NAME>}
-specialized_unit_3     1,4,32,4,4,TENSOR # specialized unit config {<enabled>,<num_units>:<latency>:<initiation>,<ID_OC_SPEC>:<OC_EX_SPEC>,<NAME>}
-specialized_unit_4         1,4,4,4,4,UDP # specialized unit config {<enabled>,<num_units>:<latency>:<initiation>,<ID_OC_SPEC>:<OC_EX_SPEC>,<NAME>}
-specialized_unit_5         0,4,4,4,4,BRA # specialized unit config {<enabled>,<num_units>:<latency>:<initiation>,<ID_OC_SPEC>:<OC_EX_SPEC>,<NAME>}
-specialized_unit_6         0,4,4,4,4,BRA # specialized unit config {<enabled>,<num_units>:<latency>:<initiation>,<ID_OC_SPEC>:<OC_EX_SPEC>,<NAME>}
-specialized_unit_7         0,4,4,4,4,BRA # specialized unit config {<enabled>,<num_units>:<latency>:<initiation>,<ID_OC_SPEC>:<OC_EX_SPEC>,<NAME>}
-specialized_unit_8         0,4,4,4,4,BRA # specialized unit config {<enabled>,<num_units>:<latency>:<initiation>,<ID_OC_SPEC>:<OC_EX_SPEC>,<NAME>}
-gpgpu_perf_sim_memcpy                    1 # Fill the L2 cache on memcpy
-gpgpu_simple_dram_model                    0 # simple_dram_model with fixed latency and BW
-gpgpu_dram_scheduler                    1 # 0 = fifo, 1 = FR-FCFS (defaul)
-gpgpu_dram_partition_queues          64:64:64:64 # i2$:$2d:d2$:$2i
-l2_ideal                               0 # Use a ideal L2 cache that always hit
-gpgpu_cache:dl2     S:64:128:16,L:B:m:L:P,A:192:4,32:0,32 # unified banked L2 data cache config  {<sector?>:<nsets>:<bsize>:<assoc>,<rep>:<wr>:<alloc>:<wr_alloc>:<set_index_fn>,<mshr>:<N>:<merge>,<mq>:<fifo_entry>,<data_port_width>
-gpgpu_cache:dl2_texture_only                    0 # L2 cache used for texture only
-gpgpu_n_mem                            6 # number of memory modules (e.g. memory controllers) in gpu
-gpgpu_n_sub_partition_per_mchannel                    2 # number of memory subpartition in each memory module
-gpgpu_n_mem_per_ctrlr                    2 # number of memory chips per memory controller
-gpgpu_memlatency_stat                   14 # track and display latency statistics 0x2 enables MC, 0x4 enables queue logs
-gpgpu_frfcfs_dram_sched_queue_size                   64 # 0 = unlimited (default); # entries per chip
-gpgpu_dram_return_queue_size                  116 # 0 = unlimited (default); # entries per chip
-gpgpu_dram_buswidth                    4 # default = 4 bytes (8 bytes per cycle at DDR)
-gpgpu_dram_burst_length                    8 # Burst length of each DRAM request (default = 4 data bus cycle)
-dram_data_command_freq_ratio                    4 # Frequency ratio between DRAM data bus and command bus (default = 2 times, i.e. DDR)
-gpgpu_dram_timing_opt nbk=16:CCD=2:RRD=6:RCD=12:RAS=28:RP=12:RC=40: CL=12:WL=4:CDLR=5:WR=12:nbkgrp=4:CCDL=3:RTPL=2 # DRAM timing parameters = {nbk:tCCD:tRRD:tRCD:tRAS:tRP:tRC:CL:WL:tCDLR:tWR:nbkgrp:tCCDL:tRTPL}
-gpgpu_l2_rop_latency                  120 # ROP queue latency (default 85)
-dram_latency                         100 # DRAM latency (default 30)
-dram_dual_bus_interface                    0 # dual_bus_interface (default = 0) 
-dram_bnk_indexing_policy                    0 # dram_bnk_indexing_policy (0 = normal indexing, 1 = Xoring with the higher bits) (Default = 0)
-dram_bnkgrp_indexing_policy                    1 # dram_bnkgrp_indexing_policy (0 = take higher bits, 1 = take lower bits) (Default = 0)
-dram_seperate_write_queue_enable                    0 # Seperate_Write_Queue_Enable
-dram_write_queue_size             32:28:16 # Write_Queue_Size
-dram_elimnate_rw_turnaround                    0 # elimnate_rw_turnaround i.e set tWTR and tRTW = 0
-icnt_flit_size                        40 # icnt_flit_size
-SST_mode                               0 # SST mode
-gpgpu_mem_addr_mapping dramid@8;00000000.00000000.00000000.00000000.0000RRRR.RRRRRRRR.BBBCCCCB.CCSSSSSS # mapping memory address to dram model {dramid@<start bit>;<memory address map>}
-gpgpu_mem_addr_test                    0 # run sweep test to check address mapping for aliased address
-gpgpu_mem_address_mask                    1 # 0 = old addressing mask, 1 = new addressing mask, 2 = new add. mask + flipped bank sel and chip sel bits
-gpgpu_memory_partition_indexing                    2 # 0 = no indexing, 1 = bitwise xoring, 2 = IPoly, 3 = custom indexing
-accelwattch_xml_file accelwattch_sass_sim.xml # AccelWattch XML file
-power_simulation_enabled                    0 # Turn on power simulator (1=On, 0=Off)
-power_per_cycle_dump                    0 # Dump detailed power output each cycle
-hw_perf_file_name            hw_perf.csv # Hardware Performance Statistics file
-hw_perf_bench_name                       # Kernel Name in Hardware Performance Statistics file
-power_simulation_mode                    0 # Switch performance counter input for power simulation (0=Sim, 1=HW, 2=HW-Sim Hybrid)
-dvfs_enabled                           0 # Turn on DVFS for power model
-aggregate_power_stats                    0 # Accumulate power across all kernels
-accelwattch_hybrid_perfsim_L1_RH                    0 # Get L1 Read Hits for Accelwattch-Hybrid from Accel-Sim
-accelwattch_hybrid_perfsim_L1_RM                    0 # Get L1 Read Misses for Accelwattch-Hybrid from Accel-Sim
-accelwattch_hybrid_perfsim_L1_WH                    0 # Get L1 Write Hits for Accelwattch-Hybrid from Accel-Sim
-accelwattch_hybrid_perfsim_L1_WM                    0 # Get L1 Write Misses for Accelwattch-Hybrid from Accel-Sim
-accelwattch_hybrid_perfsim_L2_RH                    0 # Get L2 Read Hits for Accelwattch-Hybrid from Accel-Sim
-accelwattch_hybrid_perfsim_L2_RM                    0 # Get L2 Read Misses for Accelwattch-Hybrid from Accel-Sim
-accelwattch_hybrid_perfsim_L2_WH                    0 # Get L2 Write Hits for Accelwattch-Hybrid from Accel-Sim
-accelwattch_hybrid_perfsim_L2_WM                    0 # Get L2 Write Misses for Accelwattch-Hybrid from Accel-Sim
-accelwattch_hybrid_perfsim_CC_ACC                    0 # Get Constant Cache Acesses for Accelwattch-Hybrid from Accel-Sim
-accelwattch_hybrid_perfsim_SHARED_ACC                    0 # Get Shared Memory Acesses for Accelwattch-Hybrid from Accel-Sim
-accelwattch_hybrid_perfsim_DRAM_RD                    0 # Get DRAM Reads for Accelwattch-Hybrid from Accel-Sim
-accelwattch_hybrid_perfsim_DRAM_WR                    0 # Get DRAM Writes for Accelwattch-Hybrid from Accel-Sim
-accelwattch_hybrid_perfsim_NOC                    0 # Get Interconnect Acesses for Accelwattch-Hybrid from Accel-Sim
-accelwattch_hybrid_perfsim_PIPE_DUTY                    0 # Get Pipeline Duty Cycle Acesses for Accelwattch-Hybrid from Accel-Sim
-accelwattch_hybrid_perfsim_NUM_SM_IDLE                    0 # Get Number of Idle SMs for Accelwattch-Hybrid from Accel-Sim
-accelwattch_hybrid_perfsim_CYCLES                    0 # Get Executed Cycles for Accelwattch-Hybrid from Accel-Sim
-accelwattch_hybrid_perfsim_VOLTAGE                    0 # Get Chip Voltage for Accelwattch-Hybrid from Accel-Sim
-power_trace_enabled                    0 # produce a file for the power trace (1=On, 0=Off)
-power_trace_zlevel                     6 # Compression level of the power trace output log (0=no comp, 9=highest)
-steady_power_levels_enabled                    0 # produce a file for the steady power levels (1=On, 0=Off)
-steady_state_definition                  8:4 # allowed deviation:number of samples
-gpgpu_max_cycle                        0 # terminates gpu simulation early (0 = no limit)
-gpgpu_max_insn                 100000000 # terminates gpu simulation early (0 = no limit)
-gpgpu_max_cta                          0 # terminates gpu simulation early (0 = no limit)
-gpgpu_max_completed_cta                    0 # terminates gpu simulation early (0 = no limit)
-gpgpu_runtime_stat                   500 # display runtime statistics such as dram utilization {<freq>:<flag>}
-liveness_message_freq                    1 # Minimum number of seconds between simulation liveness messages (0 = always print)
-gpgpu_compute_capability_major                    8 # Major compute capability version number
-gpgpu_compute_capability_minor                    6 # Minor compute capability version number
-gpgpu_flush_l1_cache                    1 # Flush L1 cache at the end of each kernel call
-gpgpu_flush_l2_cache                    0 # Flush L2 cache at the end of each kernel call
-gpgpu_deadlock_detect                    1 # Stop the simulation at deadlock (1=on (default), 0=off)
-gpgpu_ptx_instruction_classification                    0 # if enabled will classify ptx instruction types per kernel (Max 255 kernels now)
-gpgpu_ptx_sim_mode                     0 # Select between Performance (default) or Functional simulation (1)
-gpgpu_clock_domains 1132:1132:1132:3500.5 # Clock Domain Frequencies in MhZ {<Core Clock>:<ICNT Clock>:<L2 Clock>:<DRAM Clock>}
-gpgpu_max_concurrent_kernel                  128 # maximum kernels that can run concurrently on GPU, set this value according to max resident grids for your compute capability
-gpgpu_cflog_interval                    0 # Interval between each snapshot in control flow logger
-visualizer_enabled                     0 # Turn on visualizer output (1=On, 0=Off)
-visualizer_outputfile                 NULL # Specifies the output log file for visualizer
-visualizer_zlevel                      6 # Compression level of the visualizer output log (0=no comp, 9=highest)
-gpgpu_stack_size_limit                 1024 # GPU thread stack size
-gpgpu_heap_size_limit              8388608 # GPU malloc heap size 
-gpgpu_runtime_sync_depth_limit                    2 # GPU device runtime synchronize depth
-gpgpu_runtime_pending_launch_count_limit                 2048 # GPU device runtime pending launch count
-trace_enabled                          0 # Turn on traces
-trace_components                    none # comma seperated list of traces to enable. Complete list found in trace_streams.tup. Default none
-trace_sampling_core                    0 # The core which is printed using CORE_DPRINTF. Default 0
-trace_sampling_memory_partition                   -1 # The memory partition which is printed using MEMPART_DPRINTF. Default -1 (i.e. all)
-enable_ptx_file_line_stats                    1 # Turn on PTX source line statistic profiling. (1 = On)
-ptx_line_stats_filename gpgpu_inst_stats.txt # Output file for PTX source line statistics.
-gpgpu_kernel_launch_latency                 5000 # Kernel launch latency in cycles. Default: 0
-gpgpu_cdp_enabled                      0 # Turn on CDP
-gpgpu_TB_launch_latency                    0 # thread block launch latency in cycles. Default: 0
-trace               ./util/tracer_nvbit/BFS_traces/kernelslist.g # traces kernel filetraces kernel file directory
-trace_opcode_latency_initiation_int                  2,2 # Opcode latencies and initiation for integers in trace driven mode <latency,initiation>
-trace_opcode_latency_initiation_sp                  2,1 # Opcode latencies and initiation for sp in trace driven mode <latency,initiation>
-trace_opcode_latency_initiation_dp                64,64 # Opcode latencies and initiation for dp in trace driven mode <latency,initiation>
-trace_opcode_latency_initiation_sfu                 21,8 # Opcode latencies and initiation for sfu in trace driven mode <latency,initiation>
-trace_opcode_latency_initiation_tensor                32,32 # Opcode latencies and initiation for tensor in trace driven mode <latency,initiation>
-trace_opcode_latency_initiation_spec_op_1                  4,4 # specialized unit config <latency,initiation>
-trace_opcode_latency_initiation_spec_op_2                200,4 # specialized unit config <latency,initiation>
-trace_opcode_latency_initiation_spec_op_3                32,32 # specialized unit config <latency,initiation>
-trace_opcode_latency_initiation_spec_op_4                  4,1 # specialized unit config <latency,initiation>
-trace_opcode_latency_initiation_spec_op_5                  4,4 # specialized unit config <latency,initiation>
-trace_opcode_latency_initiation_spec_op_6                  4,4 # specialized unit config <latency,initiation>
-trace_opcode_latency_initiation_spec_op_7                  4,4 # specialized unit config <latency,initiation>
-trace_opcode_latency_initiation_spec_op_8                  4,4 # specialized unit config <latency,initiation>
DRAM Timing Options:
nbk                                    16 # number of banks
CCD                                     2 # column to column delay
RRD                                     6 # minimal delay between activation of rows in different banks
RCD                                    12 # row to column delay
RAS                                    28 # time needed to activate row
RP                                     12 # time needed to precharge (deactivate) row
RC                                     40 # row cycle time
CDLR                                    5 # switching from write to read (changes tWTR)
WR                                     12 # last data-in to row precharge
CL                                     12 # CAS latency
WL                                      4 # Write latency
nbkgrp                                  4 # number of bank groups
CCDL                                    3 # column to column delay between accesses to different bank groups
RTPL                                    2 # read to precharge delay between accesses to different bank groups
Total number of memory sub partition = 12
addr_dec_mask[CHIP]  = 0000000000000000 	high:64 low:0
addr_dec_mask[BK]    = 000000000000e100 	high:16 low:8
addr_dec_mask[ROW]   = 000000000fff0000 	high:28 low:16
addr_dec_mask[COL]   = 0000000000001eff 	high:13 low:0
addr_dec_mask[BURST] = 000000000000003f 	high:6 low:0
sub_partition_id_mask = 0000000000000100
GPGPU-Sim uArch: clock freqs: 1132000000.000000:1132000000.000000:1132000000.000000:3500500000.000000
GPGPU-Sim uArch: clock periods: 0.00000000088339222615:0.00000000088339222615:0.00000000088339222615:0.00000000028567347522
*** Initializing Memory Statistics ***
GPGPU-Sim uArch: performance model initialization complete.
launching memcpy command : MemcpyHtoD,0x00007edd61400000,524288
launching memcpy command : MemcpyHtoD,0x00007edd61480000,1572864
launching memcpy command : MemcpyHtoD,0x00007edd61600000,65536
launching memcpy command : MemcpyHtoD,0x00007edd61610000,65536
launching memcpy command : MemcpyHtoD,0x00007edd61620000,262144
launching memcpy command : MemcpyHtoD,0x00007edd61660000,1
Processing kernel ./util/tracer_nvbit/BFS_traces/kernel-1-ctx_0x38a97040.traceg.xz
-kernel name = _Z6KernelP4NodePiPbS2_S1_S2_i
-kernel id = 1
-grid dim = (256,1,1)
-block dim = (256,1,1)
-shmem = 0
-nregs = 23
-binary version = 86
-cuda stream id = 0
-shmem base_addr = 0x00007edd79000000
-local mem base_addr = 0x00007edd77000000
-nvbit version = 1.7.6
-accelsim tracer version = 5
-enable lineinfo = 0
Header info loaded for kernel command : ./util/tracer_nvbit/BFS_traces/kernel-1-ctx_0x38a97040.traceg.xz
launching kernel name: _Z6KernelP4NodePiPbS2_S1_S2_i uid: 1 cuda_stream_id: 0
GPGPU-Sim uArch: Shader 0 bind to kernel 1 '_Z6KernelP4NodePiPbS2_S1_S2_i'
GPGPU-Sim uArch: CTA/core = 6, limited by: threads
thread block = 0,0,0
GPGPU-Sim uArch: Shader 1 bind to kernel 1 '_Z6KernelP4NodePiPbS2_S1_S2_i'
thread block = 1,0,0
GPGPU-Sim uArch: Shader 2 bind to kernel 1 '_Z6KernelP4NodePiPbS2_S1_S2_i'
thread block = 2,0,0
GPGPU-Sim uArch: Shader 3 bind to kernel 1 '_Z6KernelP4NodePiPbS2_S1_S2_i'
thread block = 3,0,0
GPGPU-Sim uArch: Shader 4 bind to kernel 1 '_Z6KernelP4NodePiPbS2_S1_S2_i'
thread block = 4,0,0
GPGPU-Sim uArch: Shader 5 bind to kernel 1 '_Z6KernelP4NodePiPbS2_S1_S2_i'
thread block = 5,0,0
GPGPU-Sim uArch: Shader 6 bind to kernel 1 '_Z6KernelP4NodePiPbS2_S1_S2_i'
thread block = 6,0,0
GPGPU-Sim uArch: Shader 7 bind to kernel 1 '_Z6KernelP4NodePiPbS2_S1_S2_i'
thread block = 7,0,0
GPGPU-Sim uArch: Shader 8 bind to kernel 1 '_Z6KernelP4NodePiPbS2_S1_S2_i'
thread block = 8,0,0
GPGPU-Sim uArch: Shader 9 bind to kernel 1 '_Z6KernelP4NodePiPbS2_S1_S2_i'
thread block = 9,0,0
GPGPU-Sim uArch: Shader 10 bind to kernel 1 '_Z6KernelP4NodePiPbS2_S1_S2_i'
thread block = 10,0,0
GPGPU-Sim uArch: Shader 11 bind to kernel 1 '_Z6KernelP4NodePiPbS2_S1_S2_i'
thread block = 11,0,0
GPGPU-Sim uArch: Shader 12 bind to kernel 1 '_Z6KernelP4NodePiPbS2_S1_S2_i'
thread block = 12,0,0
GPGPU-Sim uArch: Shader 13 bind to kernel 1 '_Z6KernelP4NodePiPbS2_S1_S2_i'
thread block = 13,0,0
GPGPU-Sim uArch: Shader 14 bind to kernel 1 '_Z6KernelP4NodePiPbS2_S1_S2_i'
thread block = 14,0,0
thread block = 15,0,0
thread block = 16,0,0
thread block = 17,0,0
thread block = 18,0,0
thread block = 19,0,0
thread block = 20,0,0
thread block = 21,0,0
thread block = 22,0,0
thread block = 23,0,0
thread block = 24,0,0
thread block = 25,0,0
thread block = 26,0,0
thread block = 27,0,0
thread block = 28,0,0
thread block = 29,0,0
thread block = 30,0,0
thread block = 31,0,0
thread block = 32,0,0
thread block = 33,0,0
thread block = 34,0,0
thread block = 35,0,0
thread block = 36,0,0
thread block = 37,0,0
thread block = 38,0,0
thread block = 39,0,0
thread block = 40,0,0
thread block = 41,0,0
thread block = 42,0,0
thread block = 43,0,0
thread block = 44,0,0
thread block = 45,0,0
thread block = 46,0,0
thread block = 47,0,0
thread block = 48,0,0
thread block = 49,0,0
thread block = 50,0,0
thread block = 51,0,0
thread block = 52,0,0
thread block = 53,0,0
thread block = 54,0,0
thread block = 55,0,0
thread block = 56,0,0
thread block = 57,0,0
thread block = 58,0,0
thread block = 59,0,0
thread block = 60,0,0
thread block = 61,0,0
thread block = 62,0,0
thread block = 63,0,0
thread block = 64,0,0
thread block = 65,0,0
thread block = 66,0,0
thread block = 67,0,0
thread block = 68,0,0
thread block = 69,0,0
thread block = 70,0,0
thread block = 71,0,0
thread block = 72,0,0
thread block = 73,0,0
thread block = 74,0,0
thread block = 75,0,0
thread block = 76,0,0
thread block = 77,0,0
thread block = 78,0,0
thread block = 79,0,0
thread block = 80,0,0
thread block = 81,0,0
thread block = 82,0,0
thread block = 83,0,0
thread block = 84,0,0
thread block = 85,0,0
thread block = 86,0,0
thread block = 87,0,0
thread block = 88,0,0
thread block = 89,0,0
thread block = 90,0,0
thread block = 91,0,0
thread block = 92,0,0
thread block = 93,0,0
thread block = 94,0,0
thread block = 95,0,0
thread block = 96,0,0
thread block = 97,0,0
thread block = 98,0,0
thread block = 99,0,0
thread block = 100,0,0
thread block = 101,0,0
thread block = 102,0,0
thread block = 103,0,0
thread block = 104,0,0
thread block = 105,0,0
thread block = 106,0,0
thread block = 107,0,0
thread block = 108,0,0
thread block = 109,0,0
thread block = 110,0,0
thread block = 111,0,0
thread block = 112,0,0
thread block = 113,0,0
thread block = 114,0,0
thread block = 115,0,0
thread block = 116,0,0
thread block = 117,0,0
thread block = 118,0,0
thread block = 119,0,0
thread block = 120,0,0
thread block = 121,0,0
thread block = 122,0,0
thread block = 123,0,0
thread block = 124,0,0
thread block = 125,0,0
thread block = 126,0,0
thread block = 127,0,0
thread block = 128,0,0
thread block = 129,0,0
thread block = 130,0,0
thread block = 131,0,0
thread block = 132,0,0
thread block = 133,0,0
thread block = 134,0,0
thread block = 135,0,0
thread block = 136,0,0
thread block = 137,0,0
thread block = 138,0,0
thread block = 139,0,0
thread block = 140,0,0
thread block = 141,0,0
thread block = 142,0,0
thread block = 143,0,0
thread block = 144,0,0
thread block = 145,0,0
thread block = 146,0,0
thread block = 147,0,0
thread block = 148,0,0
thread block = 149,0,0
thread block = 150,0,0
thread block = 151,0,0
thread block = 152,0,0
thread block = 153,0,0
thread block = 154,0,0
thread block = 155,0,0
thread block = 156,0,0
thread block = 157,0,0
thread block = 158,0,0
thread block = 159,0,0
thread block = 160,0,0
thread block = 161,0,0
thread block = 162,0,0
thread block = 163,0,0
thread block = 164,0,0
thread block = 165,0,0
thread block = 166,0,0
thread block = 167,0,0
thread block = 168,0,0
thread block = 169,0,0
thread block = 170,0,0
thread block = 171,0,0
thread block = 172,0,0
thread block = 173,0,0
thread block = 174,0,0
thread block = 175,0,0
thread block = 176,0,0
thread block = 177,0,0
thread block = 178,0,0
thread block = 179,0,0
thread block = 180,0,0
thread block = 181,0,0
thread block = 182,0,0
thread block = 183,0,0
thread block = 184,0,0
thread block = 185,0,0
thread block = 186,0,0
thread block = 187,0,0
thread block = 188,0,0
thread block = 189,0,0
thread block = 190,0,0
thread block = 191,0,0
thread block = 192,0,0
thread block = 193,0,0
thread block = 194,0,0
thread block = 195,0,0
thread block = 196,0,0
thread block = 197,0,0
thread block = 198,0,0
thread block = 199,0,0
thread block = 200,0,0
thread block = 201,0,0
thread block = 202,0,0
thread block = 203,0,0
thread block = 204,0,0
thread block = 205,0,0
thread block = 206,0,0
thread block = 207,0,0
thread block = 208,0,0
thread block = 209,0,0
thread block = 210,0,0
thread block = 211,0,0
thread block = 212,0,0
thread block = 213,0,0
thread block = 214,0,0
thread block = 215,0,0
thread block = 216,0,0
thread block = 217,0,0
thread block = 218,0,0
thread block = 219,0,0
thread block = 220,0,0
thread block = 221,0,0
thread block = 222,0,0
thread block = 223,0,0
thread block = 224,0,0
thread block = 225,0,0
thread block = 226,0,0
thread block = 227,0,0
thread block = 228,0,0
thread block = 229,0,0
thread block = 230,0,0
thread block = 231,0,0
thread block = 232,0,0
thread block = 233,0,0
thread block = 234,0,0
thread block = 235,0,0
thread block = 236,0,0
thread block = 237,0,0
thread block = 238,0,0
thread block = 239,0,0
thread block = 240,0,0
thread block = 241,0,0
thread block = 242,0,0
thread block = 243,0,0
thread block = 244,0,0
thread block = 245,0,0
thread block = 246,0,0
thread block = 247,0,0
thread block = 248,0,0
thread block = 249,0,0
thread block = 250,0,0
thread block = 251,0,0
thread block = 252,0,0
thread block = 253,0,0
thread block = 254,0,0
thread block = 255,0,0
Destroy streams for kernel 1: size 0
kernel_name = _Z6KernelP4NodePiPbS2_S1_S2_i 
kernel_launch_uid = 1 
kernel_stream_id = 0
gpu_sim_cycle = 9892
gpu_sim_insn = 786680
gpu_ipc =      79.5269
gpu_tot_sim_cycle = 9892
gpu_tot_sim_insn = 786680
gpu_tot_ipc =      79.5269
gpu_tot_issued_cta = 256
gpu_occupancy = 75.9316% 
gpu_tot_occupancy = 75.9316% 
max_total_param_size = 0
gpu_stall_dramfull = 0
gpu_stall_icnt2sh    = 0
partiton_level_parallism =       0.0555
partiton_level_parallism_total  =       0.0555
partiton_level_parallism_util =       1.7373
partiton_level_parallism_util_total  =       1.7373
L2_BW  =       7.7560 GB/Sec
L2_BW_total  =       7.7560 GB/Sec
gpu_total_sim_rate=786680

========= Core cache stats =========
L1I_cache:
	L1I_total_cache_accesses = 0
	L1I_total_cache_misses = 0
	L1I_total_cache_pending_hits = 0
	L1I_total_cache_reservation_fails = 0
L1D_cache:
	L1D_cache_core[0]: Access = 188, Miss = 66, Miss_rate = 0.351, Pending_hits = 90, Reservation_fails = 0
	L1D_cache_core[1]: Access = 136, Miss = 34, Miss_rate = 0.250, Pending_hits = 102, Reservation_fails = 0
	L1D_cache_core[2]: Access = 144, Miss = 36, Miss_rate = 0.250, Pending_hits = 108, Reservation_fails = 0
	L1D_cache_core[3]: Access = 136, Miss = 34, Miss_rate = 0.250, Pending_hits = 102, Reservation_fails = 0
	L1D_cache_core[4]: Access = 144, Miss = 36, Miss_rate = 0.250, Pending_hits = 108, Reservation_fails = 0
	L1D_cache_core[5]: Access = 136, Miss = 34, Miss_rate = 0.250, Pending_hits = 102, Reservation_fails = 0
	L1D_cache_core[6]: Access = 136, Miss = 34, Miss_rate = 0.250, Pending_hits = 102, Reservation_fails = 0
	L1D_cache_core[7]: Access = 144, Miss = 36, Miss_rate = 0.250, Pending_hits = 108, Reservation_fails = 0
	L1D_cache_core[8]: Access = 136, Miss = 34, Miss_rate = 0.250, Pending_hits = 102, Reservation_fails = 0
	L1D_cache_core[9]: Access = 136, Miss = 34, Miss_rate = 0.250, Pending_hits = 102, Reservation_fails = 0
	L1D_cache_core[10]: Access = 136, Miss = 34, Miss_rate = 0.250, Pending_hits = 102, Reservation_fails = 0
	L1D_cache_core[11]: Access = 144, Miss = 36, Miss_rate = 0.250, Pending_hits = 108, Reservation_fails = 0
	L1D_cache_core[12]: Access = 128, Miss = 32, Miss_rate = 0.250, Pending_hits = 96, Reservation_fails = 0
	L1D_cache_core[13]: Access = 128, Miss = 32, Miss_rate = 0.250, Pending_hits = 96, Reservation_fails = 0
	L1D_cache_core[14]: Access = 144, Miss = 36, Miss_rate = 0.250, Pending_hits = 108, Reservation_fails = 0
	L1D_total_cache_accesses = 2116
	L1D_total_cache_misses = 548
	L1D_total_cache_miss_rate = 0.2590
	L1D_total_cache_pending_hits = 1536
	L1D_total_cache_reservation_fails = 0
	L1D_cache_data_port_util = 0.001
	L1D_cache_fill_port_util = 0.022
L1C_cache:
	L1C_total_cache_accesses = 0
	L1C_total_cache_misses = 0
	L1C_total_cache_pending_hits = 0
	L1C_total_cache_reservation_fails = 0
L1T_cache:
	L1T_total_cache_accesses = 0
	L1T_total_cache_misses = 0
	L1T_total_cache_pending_hits = 0
	L1T_total_cache_reservation_fails = 0

Total_core_cache_stats:
	Total_core_cache_stats_breakdown[GLOBAL_ACC_R][HIT] = 31
	Total_core_cache_stats_breakdown[GLOBAL_ACC_R][HIT_RESERVED] = 1536
	Total_core_cache_stats_breakdown[GLOBAL_ACC_R][MISS] = 523
	Total_core_cache_stats_breakdown[GLOBAL_ACC_R][RESERVATION_FAIL] = 0
	Total_core_cache_stats_breakdown[GLOBAL_ACC_R][SECTOR_MISS] = 0
	Total_core_cache_stats_breakdown[GLOBAL_ACC_R][MSHR_HIT] = 1536
	Total_core_cache_stats_breakdown[LOCAL_ACC_R][HIT] = 0
	Total_core_cache_stats_breakdown[LOCAL_ACC_R][HIT_RESERVED] = 0
	Total_core_cache_stats_breakdown[LOCAL_ACC_R][MISS] = 0
	Total_core_cache_stats_breakdown[LOCAL_ACC_R][RESERVATION_FAIL] = 0
	Total_core_cache_stats_breakdown[LOCAL_ACC_R][SECTOR_MISS] = 0
	Total_core_cache_stats_breakdown[LOCAL_ACC_R][MSHR_HIT] = 0
	Total_core_cache_stats_breakdown[CONST_ACC_R][HIT] = 0
	Total_core_cache_stats_breakdown[CONST_ACC_R][HIT_RESERVED] = 0
	Total_core_cache_stats_breakdown[CONST_ACC_R][MISS] = 0
	Total_core_cache_stats_breakdown[CONST_ACC_R][RESERVATION_FAIL] = 0
	Total_core_cache_stats_breakdown[CONST_ACC_R][SECTOR_MISS] = 0
	Total_core_cache_stats_breakdown[CONST_ACC_R][MSHR_HIT] = 0
	Total_core_cache_stats_breakdown[TEXTURE_ACC_R][HIT] = 0
	Total_core_cache_stats_breakdown[TEXTURE_ACC_R][HIT_RESERVED] = 0
	Total_core_cache_stats_breakdown[TEXTURE_ACC_R][MISS] = 0
	Total_core_cache_stats_breakdown[TEXTURE_ACC_R][RESERVATION_FAIL] = 0
	Total_core_cache_stats_breakdown[TEXTURE_ACC_R][SECTOR_MISS] = 0
	Total_core_cache_stats_breakdown[TEXTURE_ACC_R][MSHR_HIT] = 0
	Total_core_cache_stats_breakdown[GLOBAL_ACC_W][HIT] = 1
	Total_core_cache_stats_breakdown[GLOBAL_ACC_W][HIT_RESERVED] = 0
	Total_core_cache_stats_breakdown[GLOBAL_ACC_W][MISS] = 25
	Total_core_cache_stats_breakdown[GLOBAL_ACC_W][RESERVATION_FAIL] = 0
	Total_core_cache_stats_breakdown[GLOBAL_ACC_W][SECTOR_MISS] = 0
	Total_core_cache_stats_breakdown[GLOBAL_ACC_W][MSHR_HIT] = 0
	Total_core_cache_stats_breakdown[LOCAL_ACC_W][HIT] = 0
	Total_core_cache_stats_breakdown[LOCAL_ACC_W][HIT_RESERVED] = 0
	Total_core_cache_stats_breakdown[LOCAL_ACC_W][MISS] = 0
	Total_core_cache_stats_breakdown[LOCAL_ACC_W][RESERVATION_FAIL] = 0
	Total_core_cache_stats_breakdown[LOCAL_ACC_W][SECTOR_MISS] = 0
	Total_core_cache_stats_breakdown[LOCAL_ACC_W][MSHR_HIT] = 0
	Total_core_cache_stats_breakdown[L1_WRBK_ACC][HIT] = 0
	Total_core_cache_stats_breakdown[L1_WRBK_ACC][HIT_RESERVED] = 0
	Total_core_cache_stats_breakdown[L1_WRBK_ACC][MISS] = 0
	Total_core_cache_stats_breakdown[L1_WRBK_ACC][RESERVATION_FAIL] = 0
	Total_core_cache_stats_breakdown[L1_WRBK_ACC][SECTOR_MISS] = 0
	Total_core_cache_stats_breakdown[L1_WRBK_ACC][MSHR_HIT] = 0
	Total_core_cache_stats_breakdown[L2_WRBK_ACC][HIT] = 0
	Total_core_cache_stats_breakdown[L2_WRBK_ACC][HIT_RESERVED] = 0
	Total_core_cache_stats_breakdown[L2_WRBK_ACC][MISS] = 0
	Total_core_cache_stats_breakdown[L2_WRBK_ACC][RESERVATION_FAIL] = 0
	Total_core_cache_stats_breakdown[L2_WRBK_ACC][SECTOR_MISS] = 0
	Total_core_cache_stats_breakdown[L2_WRBK_ACC][MSHR_HIT] = 0
	Total_core_cache_stats_breakdown[INST_ACC_R][HIT] = 0
	Total_core_cache_stats_breakdown[INST_ACC_R][HIT_RESERVED] = 0
	Total_core_cache_stats_breakdown[INST_ACC_R][MISS] = 0
	Total_core_cache_stats_breakdown[INST_ACC_R][RESERVATION_FAIL] = 0
	Total_core_cache_stats_breakdown[INST_ACC_R][SECTOR_MISS] = 0
	Total_core_cache_stats_breakdown[INST_ACC_R][MSHR_HIT] = 0
	Total_core_cache_stats_breakdown[L1_WR_ALLOC_R][HIT] = 0
	Total_core_cache_stats_breakdown[L1_WR_ALLOC_R][HIT_RESERVED] = 0
	Total_core_cache_stats_breakdown[L1_WR_ALLOC_R][MISS] = 0
	Total_core_cache_stats_breakdown[L1_WR_ALLOC_R][RESERVATION_FAIL] = 0
	Total_core_cache_stats_breakdown[L1_WR_ALLOC_R][SECTOR_MISS] = 0
	Total_core_cache_stats_breakdown[L1_WR_ALLOC_R][MSHR_HIT] = 0
	Total_core_cache_stats_breakdown[L2_WR_ALLOC_R][HIT] = 0
	Total_core_cache_stats_breakdown[L2_WR_ALLOC_R][HIT_RESERVED] = 0
	Total_core_cache_stats_breakdown[L2_WR_ALLOC_R][MISS] = 0
	Total_core_cache_stats_breakdown[L2_WR_ALLOC_R][RESERVATION_FAIL] = 0
	Total_core_cache_stats_breakdown[L2_WR_ALLOC_R][SECTOR_MISS] = 0
	Total_core_cache_stats_breakdown[L2_WR_ALLOC_R][MSHR_HIT] = 0
	Total_core_cache_stats_breakdown[GLOBAL_ACC_R][TOTAL_ACCESS] = 2090
	Total_core_cache_stats_breakdown[GLOBAL_ACC_W][TOTAL_ACCESS] = 26

Total_core_cache_fail_stats:
ctas_completed 256, Shader 0 warp_id issue ditsribution:
warp_id:
0, 1, 2, 3, 4, 5, 6, 7, 8, 9, 10, 11, 12, 13, 14, 15, 16, 17, 18, 19, 20, 21, 22, 23, 24, 25, 26, 27, 28, 29, 30, 31, 32, 33, 34, 35, 36, 37, 38, 39, 40, 41, 42, 43, 44, 45, 46, 47, 
distro:
264, 13, 13, 13, 13, 13, 13, 13, 39, 39, 39, 39, 39, 39, 39, 39, 39, 39, 39, 39, 39, 39, 39, 39, 39, 39, 39, 39, 39, 39, 39, 39, 39, 39, 39, 39, 39, 39, 39, 39, 26, 26, 26, 26, 26, 26, 26, 26, 
gpgpu_n_tot_thrd_icount = 860000
gpgpu_n_tot_w_icount = 26875
gpgpu_n_stall_shd_mem = 0
gpgpu_n_mem_read_local = 0
gpgpu_n_mem_write_local = 0
gpgpu_n_mem_read_global = 523
gpgpu_n_mem_write_global = 26
gpgpu_n_mem_texture = 0
gpgpu_n_mem_const = 0
gpgpu_n_load_insn  = 65578
gpgpu_n_store_insn = 26
gpgpu_n_shmem_insn = 0
gpgpu_n_sstarr_insn = 0
gpgpu_n_tex_insn = 0
gpgpu_n_const_mem_insn = 0
gpgpu_n_param_mem_insn = 0
gpgpu_n_shmem_bkconflict = 0
gpgpu_n_l1cache_bkconflict = 0
gpgpu_n_intrawarp_mshr_merge = 0
gpgpu_n_cmem_portconflict = 0
gpgpu_stall_shd_mem[c_mem][resource_stall] = 0
gpgpu_stall_shd_mem[s_mem][bk_conf] = 0
gpgpu_stall_shd_mem[gl_mem][resource_stall] = 0
gpgpu_stall_shd_mem[gl_mem][coal_stall] = 0
gpgpu_stall_shd_mem[gl_mem][data_port_stall] = 0
gpu_reg_bank_conflict_stalls = 0
Warp Occupancy Distribution:
Stall:14115	W0_Idle:11219	W0_Scoreboard:46889	W1:249	W2:0	W3:0	W4:0	W5:0	W6:0	W7:0	W8:0	W9:0	W10:0	W11:0	W12:0	W13:0	W14:0	W15:0	W16:0	W17:0	W18:0	W19:0	W20:0	W21:0	W22:0	W23:0	W24:0	W25:0	W26:0	W27:0	W28:0	W29:0	W30:0	W31:1	W32:24575
single_issue_nums: WS0:6907	WS1:6656	WS2:6656	WS3:6656	
dual_issue_nums: WS0:0	WS1:0	WS2:0	WS3:0	
traffic_breakdown_coretomem[GLOBAL_ACC_R] = 4184 {8:523,}
traffic_breakdown_coretomem[GLOBAL_ACC_W] = 1040 {40:26,}
traffic_breakdown_memtocore[GLOBAL_ACC_R] = 83680 {40:2092,}
traffic_breakdown_memtocore[GLOBAL_ACC_W] = 208 {8:26,}
maxmflatency = 316 
max_icnt2mem_latency = 44 
maxmrqlatency = 22 
max_icnt2sh_latency = 20 
averagemflatency = 243 
avg_icnt2mem_latency = 9 
avg_mrq_latency = 1 
avg_icnt2sh_latency = 3 
mrq_lat_table:1511 	233 	183 	143 	22 	0 	0 	0 	0 	0 	0 	0 	0 	0 	0 	0 	0 	0 	0 	0 	0 	0 	0 	0 	0 	0 	0 	0 	0 	0 	0 	0 	
dq_lat_table:0 	0 	0 	0 	0 	0 	0 	0 	0 	0 	0 	0 	0 	0 	0 	0 	0 	0 	0 	0 	0 	0 	0 	0 	0 	0 	0 	0 	0 	0 	0 	0 	
mf_lat_table:0 	0 	0 	0 	0 	0 	0 	1790 	328 	0 	0 	0 	0 	0 	0 	0 	0 	0 	0 	0 	0 	0 	0 	0 	0 	0 	0 	0 	0 	0 	0 	0 	
icnt2mem_lat_table:0 	0 	0 	0 	0 	549 	0 	0 	0 	0 	0 	0 	0 	0 	0 	0 	0 	0 	0 	0 	0 	0 	0 	0 	
icnt2sh_lat_table:0 	1563 	344 	193 	18 	0 	0 	0 	0 	0 	0 	0 	0 	0 	0 	0 	0 	0 	0 	0 	0 	0 	0 	0 	
mf_lat_pw_table:0 	0 	0 	0 	0 	0 	0 	9 	0 	0 	0 	0 	0 	0 	0 	0 	0 	0 	0 	0 	0 	0 	0 	0 	0 	0 	0 	0 	0 	0 	0 	0 	
maximum concurrent accesses to same row:
dram[0]:         0         0         0         0         0         0         0         0         0         0         0         0         0         0         0         0 
dram[1]:         0         0         0         0         0         0         0         0         0         0         0         0         0         0         0         0 
dram[2]:         0         0         0         0         0         0         0         0         0         0         0         0         0         0         0         0 
dram[3]:         0         0         0         0         0         0         0         0         0         0         0         0         0         0         0         0 
dram[4]:        96         0         0         0         0         0         0         0         0         0         0         0         0         0         0         0 
dram[5]:         0         0         0         0         0         0         0         0         0         0         0         0         0         0         0         0 
maximum service time to same row:
dram[0]:      5428      5432      6164      6217      7056         0         0         0         0         0      5741         0         0         0         0         0 
dram[1]:      5432      5428      6194      6210      8359         0         0         0         0         0         0         0         0         0         0         0 
dram[2]:      5428      5432      6253      6261         0         0         0         0         0         0         0         0         0         0         0         0 
dram[3]:      5428      5432      6236      6296         0         0         0         0         0         0         0         0         0         0         0         0 
dram[4]:      5428      5432      6161      6216         0         0         0         0         0         0         0         0         0         0         0         0 
dram[5]:      5428      5432      6182      6198         0      6659         0         0         0         0         0         0         0         0         0         0 
average row accesses per activate:
dram[0]: 192.000000 192.000000 64.000000 56.000000  8.000000      -nan      -nan      -nan      -nan      -nan  4.000000      -nan      -nan      -nan      -nan      -nan 
dram[1]: 192.000000 192.000000 64.000000 60.000000  8.000000      -nan      -nan      -nan      -nan      -nan      -nan      -nan      -nan      -nan      -nan      -nan 
dram[2]: 96.000000 96.000000 44.000000 32.000000      -nan      -nan      -nan      -nan      -nan      -nan      -nan      -nan      -nan      -nan      -nan      -nan 
dram[3]: 96.000000 96.000000 44.000000 32.000000      -nan      -nan      -nan      -nan      -nan      -nan      -nan      -nan      -nan      -nan      -nan      -nan 
dram[4]: 50.000000 96.000000 32.000000 36.000000      -nan      -nan      -nan      -nan      -nan      -nan      -nan      -nan      -nan      -nan      -nan      -nan 
dram[5]: 96.000000 96.000000 32.000000 32.000000      -nan  4.000000      -nan      -nan      -nan      -nan      -nan      -nan      -nan      -nan      -nan      -nan 
average row locality = 2092/29 = 72.137932
number of total memory accesses made:
dram[0]:         0         0         0         0         0         0         0         0         0         0         0         0         0         0         0         0 
dram[1]:         0         0         0         0         0         0         0         0         0         0         0         0         0         0         0         0 
dram[2]:         0         0         0         0         0         0         0         0         0         0         0         0         0         0         0         0 
dram[3]:         0         0         0         0         0         0         0         0         0         0         0         0         0         0         0         0 
dram[4]:         0         0         0         0         0         0         0         0         0         0         0         0         0         0         0         0 
dram[5]:         0         0         0         0         0         0         0         0         0         0         0         0         0         0         0         0 
total accesses: 0
min_bank_accesses = 0!
min_chip_accesses = 0!
number of total read accesses:
dram[0]:         0         0         0         0         0         0         0         0         0         0         0         0         0         0         0         0 
dram[1]:         0         0         0         0         0         0         0         0         0         0         0         0         0         0         0         0 
dram[2]:         0         0         0         0         0         0         0         0         0         0         0         0         0         0         0         0 
dram[3]:         0         0         0         0         0         0         0         0         0         0         0         0         0         0         0         0 
dram[4]:         0         0         0         0         0         0         0         0         0         0         0         0         0         0         0         0 
dram[5]:         0         0         0         0         0         0         0         0         0         0         0         0         0         0         0         0 
total dram reads = 0
min_bank_accesses = 0!
min_chip_accesses = 0!
number of total write accesses:
dram[0]:         0         0         0         0         0         0         0         0         0         0         0         0         0         0         0         0 
dram[1]:         0         0         0         0         0         0         0         0         0         0         0         0         0         0         0         0 
dram[2]:         0         0         0         0         0         0         0         0         0         0         0         0         0         0         0         0 
dram[3]:         0         0         0         0         0         0         0         0         0         0         0         0         0         0         0         0 
dram[4]:         0         0         0         0         0         0         0         0         0         0         0         0         0         0         0         0 
dram[5]:         0         0         0         0         0         0         0         0         0         0         0         0         0         0         0         0 
total dram writes = 0
min_bank_accesses = 0!
min_chip_accesses = 0!
average mf latency per bank:
dram[0]:     none      none      none      none      none      none      none      none      none      none      none      none      none      none      none      none  
dram[1]:     none      none      none      none      none      none      none      none      none      none      none      none      none      none      none      none  
dram[2]:     none      none      none      none      none      none      none      none      none      none      none      none      none      none      none      none  
dram[3]:     none      none      none      none      none      none      none      none      none      none      none      none      none      none      none      none  
dram[4]:     none      none      none      none      none      none      none      none      none      none      none      none      none      none      none      none  
dram[5]:     none      none      none      none      none      none      none      none      none      none      none      none      none      none      none      none  
maximum mf latency per bank:
dram[0]:        306       310       248       249       238         0         0         0         0         0       238         0         0         0       162         0
dram[1]:        316       313       251       252       238         0         0         0       162         0         0         0         0         0         0         0
dram[2]:        267       264       239       240         0         0         0         0         0         0         0         0         0         0         0         0
dram[3]:        273       270       251       246         0         0         0         0         0       162         0       162         0         0         0         0
dram[4]:        263       262       242       241         0         0       162       162         0         0         0         0         0         0         0         0
dram[5]:        265       259       243       242         0       238         0         0         0         0       162         0         0         0         0       162
Memory Partition 0: 
Cache L2_bank_000:
MSHR contents

Cache L2_bank_001:
MSHR contents

In Dram Latency Queue (total = 0): 
DRAM[0]: 16 bks, busW=4 BL=8 CL=12, tRRD=6 tCCD=2, tRCD=12 tRAS=28 tRP=12 tRC=40
n_cmd=30587 n_nop=30065 n_act=6 n_pre=0 n_ref_event=0 n_req=516 n_rd=516 n_rd_L2_A=0 n_write=0 n_wr_bk=0 bw_util=0.03374
n_activity=1637 dram_eff=0.6304
bk0: 192a 30284i bk1: 192a 30294i bk2: 64a 30514i bk3: 56a 30493i bk4: 8a 30567i bk5: 0a 30584i bk6: 0a 30584i bk7: 0a 30585i bk8: 0a 30585i bk9: 0a 30586i bk10: 4a 30567i bk11: 0a 30585i bk12: 0a 30586i bk13: 0a 30588i bk14: 0a 30589i bk15: 0a 30590i 

------------------------------------------------------------------------

Row_Buffer_Locality = 0.988372
Row_Buffer_Locality_read = 0.988372
Row_Buffer_Locality_write = -nan
Bank_Level_Parallism = 1.419528
Bank_Level_Parallism_Col = 1.422246
Bank_Level_Parallism_Ready = 1.011628
write_to_read_ratio_blp_rw_average = 0.000000
GrpLevelPara = 1.422246 

BW Util details:
bwutil = 0.033740 
total_CMD = 30587 
util_bw = 1032 
Wasted_Col = 132 
Wasted_Row = 0 
Idle = 29423 

BW Util Bottlenecks: 
RCDc_limit = 65 
RCDWRc_limit = 0 
WTRc_limit = 0 
RTWc_limit = 0 
CCDLc_limit = 70 
rwq = 0 
CCDLc_limit_alone = 70 
WTRc_limit_alone = 0 
RTWc_limit_alone = 0 

Commands details: 
total_CMD = 30587 
n_nop = 30065 
Read = 516 
Write = 0 
L2_Alloc = 0 
L2_WB = 0 
n_act = 6 
n_pre = 0 
n_ref = 0 
n_req = 516 
total_req = 516 

Dual Bus Interface Util: 
issued_total_row = 6 
issued_total_col = 516 
Row_Bus_Util =  0.000196 
CoL_Bus_Util = 0.016870 
Either_Row_CoL_Bus_Util = 0.017066 
Issued_on_Two_Bus_Simul_Util = 0.000000 
issued_two_Eff = 0.000000 
queue_avg = 0.136463 


dram_util_bins: 0 0 0 0 0 0 0 0 0 0
dram_eff_bins: 0 0 0 0 0 0 0 0 0 0
mrqq: max=23 avg=0.136463
Memory Partition 1: 
Cache L2_bank_002:
MSHR contents

Cache L2_bank_003:
MSHR contents

In Dram Latency Queue (total = 0): 
DRAM[1]: 16 bks, busW=4 BL=8 CL=12, tRRD=6 tCCD=2, tRCD=12 tRAS=28 tRP=12 tRC=40
n_cmd=30587 n_nop=30066 n_act=5 n_pre=0 n_ref_event=0 n_req=516 n_rd=516 n_rd_L2_A=0 n_write=0 n_wr_bk=0 bw_util=0.03374
n_activity=1578 dram_eff=0.654
bk0: 192a 30252i bk1: 192a 30266i bk2: 64a 30504i bk3: 60a 30507i bk4: 8a 30567i bk5: 0a 30584i bk6: 0a 30585i bk7: 0a 30586i bk8: 0a 30587i bk9: 0a 30587i bk10: 0a 30587i bk11: 0a 30587i bk12: 0a 30587i bk13: 0a 30587i bk14: 0a 30587i bk15: 0a 30588i 

------------------------------------------------------------------------

Row_Buffer_Locality = 0.990310
Row_Buffer_Locality_read = 0.990310
Row_Buffer_Locality_write = -nan
Bank_Level_Parallism = 1.404564
Bank_Level_Parallism_Col = 1.405208
Bank_Level_Parallism_Ready = 1.013566
write_to_read_ratio_blp_rw_average = 0.000000
GrpLevelPara = 1.405208 

BW Util details:
bwutil = 0.033740 
total_CMD = 30587 
util_bw = 1032 
Wasted_Col = 140 
Wasted_Row = 0 
Idle = 29415 

BW Util Bottlenecks: 
RCDc_limit = 47 
RCDWRc_limit = 0 
WTRc_limit = 0 
RTWc_limit = 0 
CCDLc_limit = 99 
rwq = 0 
CCDLc_limit_alone = 99 
WTRc_limit_alone = 0 
RTWc_limit_alone = 0 

Commands details: 
total_CMD = 30587 
n_nop = 30066 
Read = 516 
Write = 0 
L2_Alloc = 0 
L2_WB = 0 
n_act = 5 
n_pre = 0 
n_ref = 0 
n_req = 516 
total_req = 516 

Dual Bus Interface Util: 
issued_total_row = 5 
issued_total_col = 516 
Row_Bus_Util =  0.000163 
CoL_Bus_Util = 0.016870 
Either_Row_CoL_Bus_Util = 0.017033 
Issued_on_Two_Bus_Simul_Util = 0.000000 
issued_two_Eff = 0.000000 
queue_avg = 0.152123 


dram_util_bins: 0 0 0 0 0 0 0 0 0 0
dram_eff_bins: 0 0 0 0 0 0 0 0 0 0
mrqq: max=24 avg=0.152123
Memory Partition 2: 
Cache L2_bank_004:
MSHR contents

Cache L2_bank_005:
MSHR contents

In Dram Latency Queue (total = 0): 
DRAM[2]: 16 bks, busW=4 BL=8 CL=12, tRRD=6 tCCD=2, tRCD=12 tRAS=28 tRP=12 tRC=40
n_cmd=30587 n_nop=30315 n_act=4 n_pre=0 n_ref_event=0 n_req=268 n_rd=268 n_rd_L2_A=0 n_write=0 n_wr_bk=0 bw_util=0.01752
n_activity=979 dram_eff=0.5475
bk0: 96a 30534i bk1: 96a 30534i bk2: 44a 30561i bk3: 32a 30559i bk4: 0a 30585i bk5: 0a 30586i bk6: 0a 30586i bk7: 0a 30586i bk8: 0a 30586i bk9: 0a 30587i bk10: 0a 30587i bk11: 0a 30587i bk12: 0a 30587i bk13: 0a 30587i bk14: 0a 30587i bk15: 0a 30588i 

------------------------------------------------------------------------

Row_Buffer_Locality = 0.985075
Row_Buffer_Locality_read = 0.985075
Row_Buffer_Locality_write = -nan
Bank_Level_Parallism = 1.085859
Bank_Level_Parallism_Col = 1.081425
Bank_Level_Parallism_Ready = 1.007463
write_to_read_ratio_blp_rw_average = 0.000000
GrpLevelPara = 1.081425 

BW Util details:
bwutil = 0.017524 
total_CMD = 30587 
util_bw = 536 
Wasted_Col = 70 
Wasted_Row = 0 
Idle = 29981 

BW Util Bottlenecks: 
RCDc_limit = 34 
RCDWRc_limit = 0 
WTRc_limit = 0 
RTWc_limit = 0 
CCDLc_limit = 42 
rwq = 0 
CCDLc_limit_alone = 42 
WTRc_limit_alone = 0 
RTWc_limit_alone = 0 

Commands details: 
total_CMD = 30587 
n_nop = 30315 
Read = 268 
Write = 0 
L2_Alloc = 0 
L2_WB = 0 
n_act = 4 
n_pre = 0 
n_ref = 0 
n_req = 268 
total_req = 268 

Dual Bus Interface Util: 
issued_total_row = 4 
issued_total_col = 268 
Row_Bus_Util =  0.000131 
CoL_Bus_Util = 0.008762 
Either_Row_CoL_Bus_Util = 0.008893 
Issued_on_Two_Bus_Simul_Util = 0.000000 
issued_two_Eff = 0.000000 
queue_avg = 0.009122 


dram_util_bins: 0 0 0 0 0 0 0 0 0 0
dram_eff_bins: 0 0 0 0 0 0 0 0 0 0
mrqq: max=4 avg=0.00912152
Memory Partition 3: 
Cache L2_bank_006:
MSHR contents

Cache L2_bank_007:
MSHR contents

In Dram Latency Queue (total = 0): 
DRAM[3]: 16 bks, busW=4 BL=8 CL=12, tRRD=6 tCCD=2, tRCD=12 tRAS=28 tRP=12 tRC=40
n_cmd=30587 n_nop=30315 n_act=4 n_pre=0 n_ref_event=0 n_req=268 n_rd=268 n_rd_L2_A=0 n_write=0 n_wr_bk=0 bw_util=0.01752
n_activity=1041 dram_eff=0.5149
bk0: 96a 30555i bk1: 96a 30554i bk2: 44a 30544i bk3: 32a 30549i bk4: 0a 30585i bk5: 0a 30586i bk6: 0a 30586i bk7: 0a 30586i bk8: 0a 30586i bk9: 0a 30586i bk10: 0a 30586i bk11: 0a 30587i bk12: 0a 30587i bk13: 0a 30588i bk14: 0a 30588i bk15: 0a 30588i 

------------------------------------------------------------------------

Row_Buffer_Locality = 0.985075
Row_Buffer_Locality_read = 0.985075
Row_Buffer_Locality_write = -nan
Bank_Level_Parallism = 1.088773
Bank_Level_Parallism_Col = 1.089710
Bank_Level_Parallism_Ready = 1.007463
write_to_read_ratio_blp_rw_average = 0.000000
GrpLevelPara = 1.089710 

BW Util details:
bwutil = 0.017524 
total_CMD = 30587 
util_bw = 536 
Wasted_Col = 65 
Wasted_Row = 0 
Idle = 29986 

BW Util Bottlenecks: 
RCDc_limit = 41 
RCDWRc_limit = 0 
WTRc_limit = 0 
RTWc_limit = 0 
CCDLc_limit = 27 
rwq = 0 
CCDLc_limit_alone = 27 
WTRc_limit_alone = 0 
RTWc_limit_alone = 0 

Commands details: 
total_CMD = 30587 
n_nop = 30315 
Read = 268 
Write = 0 
L2_Alloc = 0 
L2_WB = 0 
n_act = 4 
n_pre = 0 
n_ref = 0 
n_req = 268 
total_req = 268 

Dual Bus Interface Util: 
issued_total_row = 4 
issued_total_col = 268 
Row_Bus_Util =  0.000131 
CoL_Bus_Util = 0.008762 
Either_Row_CoL_Bus_Util = 0.008893 
Issued_on_Two_Bus_Simul_Util = 0.000000 
issued_two_Eff = 0.000000 
queue_avg = 0.007225 


dram_util_bins: 0 0 0 0 0 0 0 0 0 0
dram_eff_bins: 0 0 0 0 0 0 0 0 0 0
mrqq: max=4 avg=0.00722529
Memory Partition 4: 
Cache L2_bank_008:
MSHR contents

Cache L2_bank_009:
MSHR contents

In Dram Latency Queue (total = 0): 
DRAM[4]: 16 bks, busW=4 BL=8 CL=12, tRRD=6 tCCD=2, tRCD=12 tRAS=28 tRP=12 tRC=40
n_cmd=30587 n_nop=30317 n_act=5 n_pre=1 n_ref_event=0 n_req=264 n_rd=264 n_rd_L2_A=0 n_write=0 n_wr_bk=0 bw_util=0.01726
n_activity=919 dram_eff=0.5745
bk0: 100a 30418i bk1: 96a 30404i bk2: 32a 30553i bk3: 36a 30551i bk4: 0a 30584i bk5: 0a 30584i bk6: 0a 30584i bk7: 0a 30584i bk8: 0a 30584i bk9: 0a 30587i bk10: 0a 30587i bk11: 0a 30588i bk12: 0a 30588i bk13: 0a 30590i bk14: 0a 30590i bk15: 0a 30590i 

------------------------------------------------------------------------

Row_Buffer_Locality = 0.981061
Row_Buffer_Locality_read = 0.981061
Row_Buffer_Locality_write = -nan
Bank_Level_Parallism = 1.258242
Bank_Level_Parallism_Col = 1.266541
Bank_Level_Parallism_Ready = 1.011364
write_to_read_ratio_blp_rw_average = 0.000000
GrpLevelPara = 1.266541 

BW Util details:
bwutil = 0.017262 
total_CMD = 30587 
util_bw = 528 
Wasted_Col = 116 
Wasted_Row = 12 
Idle = 29931 

BW Util Bottlenecks: 
RCDc_limit = 53 
RCDWRc_limit = 0 
WTRc_limit = 0 
RTWc_limit = 0 
CCDLc_limit = 66 
rwq = 0 
CCDLc_limit_alone = 66 
WTRc_limit_alone = 0 
RTWc_limit_alone = 0 

Commands details: 
total_CMD = 30587 
n_nop = 30317 
Read = 264 
Write = 0 
L2_Alloc = 0 
L2_WB = 0 
n_act = 5 
n_pre = 1 
n_ref = 0 
n_req = 264 
total_req = 264 

Dual Bus Interface Util: 
issued_total_row = 6 
issued_total_col = 264 
Row_Bus_Util =  0.000196 
CoL_Bus_Util = 0.008631 
Either_Row_CoL_Bus_Util = 0.008827 
Issued_on_Two_Bus_Simul_Util = 0.000000 
issued_two_Eff = 0.000000 
queue_avg = 0.041684 


dram_util_bins: 0 0 0 0 0 0 0 0 0 0
dram_eff_bins: 0 0 0 0 0 0 0 0 0 0
mrqq: max=9 avg=0.0416844
Memory Partition 5: 
Cache L2_bank_010:
MSHR contents

Cache L2_bank_011:
MSHR contents

In Dram Latency Queue (total = 0): 
DRAM[5]: 16 bks, busW=4 BL=8 CL=12, tRRD=6 tCCD=2, tRCD=12 tRAS=28 tRP=12 tRC=40
n_cmd=30587 n_nop=30322 n_act=5 n_pre=0 n_ref_event=0 n_req=260 n_rd=260 n_rd_L2_A=0 n_write=0 n_wr_bk=0 bw_util=0.017
n_activity=953 dram_eff=0.5456
bk0: 96a 30515i bk1: 96a 30489i bk2: 32a 30553i bk3: 32a 30535i bk4: 0a 30586i bk5: 4a 30568i bk6: 0a 30585i bk7: 0a 30585i bk8: 0a 30585i bk9: 0a 30585i bk10: 0a 30585i bk11: 0a 30586i bk12: 0a 30587i bk13: 0a 30588i bk14: 0a 30588i bk15: 0a 30588i 

------------------------------------------------------------------------

Row_Buffer_Locality = 0.980769
Row_Buffer_Locality_read = 0.980769
Row_Buffer_Locality_write = -nan
Bank_Level_Parallism = 1.221219
Bank_Level_Parallism_Col = 1.223744
Bank_Level_Parallism_Ready = 1.011539
write_to_read_ratio_blp_rw_average = 0.000000
GrpLevelPara = 1.223744 

BW Util details:
bwutil = 0.017001 
total_CMD = 30587 
util_bw = 520 
Wasted_Col = 88 
Wasted_Row = 0 
Idle = 29979 

BW Util Bottlenecks: 
RCDc_limit = 53 
RCDWRc_limit = 0 
WTRc_limit = 0 
RTWc_limit = 0 
CCDLc_limit = 38 
rwq = 0 
CCDLc_limit_alone = 38 
WTRc_limit_alone = 0 
RTWc_limit_alone = 0 

Commands details: 
total_CMD = 30587 
n_nop = 30322 
Read = 260 
Write = 0 
L2_Alloc = 0 
L2_WB = 0 
n_act = 5 
n_pre = 0 
n_ref = 0 
n_req = 260 
total_req = 260 

Dual Bus Interface Util: 
issued_total_row = 5 
issued_total_col = 260 
Row_Bus_Util =  0.000163 
CoL_Bus_Util = 0.008500 
Either_Row_CoL_Bus_Util = 0.008664 
Issued_on_Two_Bus_Simul_Util = 0.000000 
issued_two_Eff = 0.000000 
queue_avg = 0.019257 


dram_util_bins: 0 0 0 0 0 0 0 0 0 0
dram_eff_bins: 0 0 0 0 0 0 0 0 0 0
mrqq: max=7 avg=0.0192565

========= L2 cache stats =========
L2_cache_bank[0]: Access = 297, Miss = 297, Miss_rate = 1.000, Pending_hits = 0, Reservation_fails = 0
L2_cache_bank[1]: Access = 230, Miss = 222, Miss_rate = 0.965, Pending_hits = 0, Reservation_fails = 0
L2_cache_bank[2]: Access = 290, Miss = 288, Miss_rate = 0.993, Pending_hits = 0, Reservation_fails = 0
L2_cache_bank[3]: Access = 231, Miss = 229, Miss_rate = 0.991, Pending_hits = 0, Reservation_fails = 0
L2_cache_bank[4]: Access = 148, Miss = 148, Miss_rate = 1.000, Pending_hits = 0, Reservation_fails = 0
L2_cache_bank[5]: Access = 121, Miss = 120, Miss_rate = 0.992, Pending_hits = 0, Reservation_fails = 0
L2_cache_bank[6]: Access = 148, Miss = 148, Miss_rate = 1.000, Pending_hits = 0, Reservation_fails = 0
L2_cache_bank[7]: Access = 122, Miss = 122, Miss_rate = 1.000, Pending_hits = 0, Reservation_fails = 0
L2_cache_bank[8]: Access = 149, Miss = 149, Miss_rate = 1.000, Pending_hits = 0, Reservation_fails = 0
L2_cache_bank[9]: Access = 117, Miss = 117, Miss_rate = 1.000, Pending_hits = 0, Reservation_fails = 0
L2_cache_bank[10]: Access = 149, Miss = 148, Miss_rate = 0.993, Pending_hits = 0, Reservation_fails = 0
L2_cache_bank[11]: Access = 116, Miss = 114, Miss_rate = 0.983, Pending_hits = 0, Reservation_fails = 0
L2_total_cache_accesses = 2118
L2_total_cache_misses = 2102
L2_total_cache_miss_rate = 0.9924
L2_total_cache_pending_hits = 0
L2_total_cache_reservation_fails = 0
L2_total_cache_breakdown:
	L2_cache_stats_breakdown[GLOBAL_ACC_R][HIT] = 0
	L2_cache_stats_breakdown[GLOBAL_ACC_R][HIT_RESERVED] = 0
	L2_cache_stats_breakdown[GLOBAL_ACC_R][MISS] = 523
	L2_cache_stats_breakdown[GLOBAL_ACC_R][RESERVATION_FAIL] = 0
	L2_cache_stats_breakdown[GLOBAL_ACC_R][SECTOR_MISS] = 1569
	L2_cache_stats_breakdown[GLOBAL_ACC_R][MSHR_HIT] = 0
	L2_cache_stats_breakdown[LOCAL_ACC_R][HIT] = 0
	L2_cache_stats_breakdown[LOCAL_ACC_R][HIT_RESERVED] = 0
	L2_cache_stats_breakdown[LOCAL_ACC_R][MISS] = 0
	L2_cache_stats_breakdown[LOCAL_ACC_R][RESERVATION_FAIL] = 0
	L2_cache_stats_breakdown[LOCAL_ACC_R][SECTOR_MISS] = 0
	L2_cache_stats_breakdown[LOCAL_ACC_R][MSHR_HIT] = 0
	L2_cache_stats_breakdown[CONST_ACC_R][HIT] = 0
	L2_cache_stats_breakdown[CONST_ACC_R][HIT_RESERVED] = 0
	L2_cache_stats_breakdown[CONST_ACC_R][MISS] = 0
	L2_cache_stats_breakdown[CONST_ACC_R][RESERVATION_FAIL] = 0
	L2_cache_stats_breakdown[CONST_ACC_R][SECTOR_MISS] = 0
	L2_cache_stats_breakdown[CONST_ACC_R][MSHR_HIT] = 0
	L2_cache_stats_breakdown[TEXTURE_ACC_R][HIT] = 0
	L2_cache_stats_breakdown[TEXTURE_ACC_R][HIT_RESERVED] = 0
	L2_cache_stats_breakdown[TEXTURE_ACC_R][MISS] = 0
	L2_cache_stats_breakdown[TEXTURE_ACC_R][RESERVATION_FAIL] = 0
	L2_cache_stats_breakdown[TEXTURE_ACC_R][SECTOR_MISS] = 0
	L2_cache_stats_breakdown[TEXTURE_ACC_R][MSHR_HIT] = 0
	L2_cache_stats_breakdown[GLOBAL_ACC_W][HIT] = 16
	L2_cache_stats_breakdown[GLOBAL_ACC_W][HIT_RESERVED] = 0
	L2_cache_stats_breakdown[GLOBAL_ACC_W][MISS] = 10
	L2_cache_stats_breakdown[GLOBAL_ACC_W][RESERVATION_FAIL] = 0
	L2_cache_stats_breakdown[GLOBAL_ACC_W][SECTOR_MISS] = 0
	L2_cache_stats_breakdown[GLOBAL_ACC_W][MSHR_HIT] = 0
	L2_cache_stats_breakdown[LOCAL_ACC_W][HIT] = 0
	L2_cache_stats_breakdown[LOCAL_ACC_W][HIT_RESERVED] = 0
	L2_cache_stats_breakdown[LOCAL_ACC_W][MISS] = 0
	L2_cache_stats_breakdown[LOCAL_ACC_W][RESERVATION_FAIL] = 0
	L2_cache_stats_breakdown[LOCAL_ACC_W][SECTOR_MISS] = 0
	L2_cache_stats_breakdown[LOCAL_ACC_W][MSHR_HIT] = 0
	L2_cache_stats_breakdown[L1_WRBK_ACC][HIT] = 0
	L2_cache_stats_breakdown[L1_WRBK_ACC][HIT_RESERVED] = 0
	L2_cache_stats_breakdown[L1_WRBK_ACC][MISS] = 0
	L2_cache_stats_breakdown[L1_WRBK_ACC][RESERVATION_FAIL] = 0
	L2_cache_stats_breakdown[L1_WRBK_ACC][SECTOR_MISS] = 0
	L2_cache_stats_breakdown[L1_WRBK_ACC][MSHR_HIT] = 0
	L2_cache_stats_breakdown[L2_WRBK_ACC][HIT] = 0
	L2_cache_stats_breakdown[L2_WRBK_ACC][HIT_RESERVED] = 0
	L2_cache_stats_breakdown[L2_WRBK_ACC][MISS] = 0
	L2_cache_stats_breakdown[L2_WRBK_ACC][RESERVATION_FAIL] = 0
	L2_cache_stats_breakdown[L2_WRBK_ACC][SECTOR_MISS] = 0
	L2_cache_stats_breakdown[L2_WRBK_ACC][MSHR_HIT] = 0
	L2_cache_stats_breakdown[INST_ACC_R][HIT] = 0
	L2_cache_stats_breakdown[INST_ACC_R][HIT_RESERVED] = 0
	L2_cache_stats_breakdown[INST_ACC_R][MISS] = 0
	L2_cache_stats_breakdown[INST_ACC_R][RESERVATION_FAIL] = 0
	L2_cache_stats_breakdown[INST_ACC_R][SECTOR_MISS] = 0
	L2_cache_stats_breakdown[INST_ACC_R][MSHR_HIT] = 0
	L2_cache_stats_breakdown[L1_WR_ALLOC_R][HIT] = 0
	L2_cache_stats_breakdown[L1_WR_ALLOC_R][HIT_RESERVED] = 0
	L2_cache_stats_breakdown[L1_WR_ALLOC_R][MISS] = 0
	L2_cache_stats_breakdown[L1_WR_ALLOC_R][RESERVATION_FAIL] = 0
	L2_cache_stats_breakdown[L1_WR_ALLOC_R][SECTOR_MISS] = 0
	L2_cache_stats_breakdown[L1_WR_ALLOC_R][MSHR_HIT] = 0
	L2_cache_stats_breakdown[L2_WR_ALLOC_R][HIT] = 0
	L2_cache_stats_breakdown[L2_WR_ALLOC_R][HIT_RESERVED] = 0
	L2_cache_stats_breakdown[L2_WR_ALLOC_R][MISS] = 0
	L2_cache_stats_breakdown[L2_WR_ALLOC_R][RESERVATION_FAIL] = 0
	L2_cache_stats_breakdown[L2_WR_ALLOC_R][SECTOR_MISS] = 0
	L2_cache_stats_breakdown[L2_WR_ALLOC_R][MSHR_HIT] = 0
	L2_cache_stats_breakdown[GLOBAL_ACC_R][TOTAL_ACCESS] = 2092
	L2_cache_stats_breakdown[GLOBAL_ACC_W][TOTAL_ACCESS] = 26
L2_total_cache_reservation_fail_breakdown:
L2_cache_data_port_util = 0.000
L2_cache_fill_port_util = 0.018

icnt_total_pkts_mem_to_simt=2118
icnt_total_pkts_simt_to_mem=549
LD_mem_lat_dist  0 0 0 0 0 0 0 0 0 0 0 0 0 0 0 0 0 0 0 0 0 0 0 0 0 0 0
ST_mem_lat_dist  0 0 0 0 0 0 0 0 0 0 0 0 0 0 0 0 0 0 0 0 0 0 0 0 0 0 0
----------------------------Interconnect-DETAILS--------------------------------
Req_Network_injected_packets_num = 549
Req_Network_cycles = 9892
Req_Network_injected_packets_per_cycle =       0.0555 
Req_Network_conflicts_per_cycle =       0.0226
Req_Network_conflicts_per_cycle_util =       0.7089
Req_Bank_Level_Parallism =       1.7373
Req_Network_in_buffer_full_per_cycle =       0.0000
Req_Network_in_buffer_avg_util =       0.0016
Req_Network_out_buffer_full_per_cycle =       0.0000
Req_Network_out_buffer_avg_util =       0.0046

Reply_Network_injected_packets_num = 2118
Reply_Network_cycles = 9892
Reply_Network_injected_packets_per_cycle =        0.2141
Reply_Network_conflicts_per_cycle =        0.0264
Reply_Network_conflicts_per_cycle_util =       0.3794
Reply_Bank_Level_Parallism =       3.0785
Reply_Network_in_buffer_full_per_cycle =       0.0000
Reply_Network_in_buffer_avg_util =       0.0270
Reply_Network_out_buffer_full_per_cycle =       0.0000
Reply_Network_out_buffer_avg_util =       0.0143
----------------------------END-of-Interconnect-DETAILS-------------------------


gpgpu_simulation_time = 0 days, 0 hrs, 0 min, 1 sec (1 sec)
gpgpu_simulation_rate = 786680 (inst/sec)
gpgpu_simulation_rate = 9892 (cycle/sec)
gpgpu_silicon_slowdown = 114435x
launching memcpy command : MemcpyHtoD,0x00007edd61660000,1
Processing kernel ./util/tracer_nvbit/BFS_traces/kernel-2-ctx_0x38a97040.traceg.xz
-kernel name = _Z6KernelP4NodePiPbS2_S1_S2_i
-kernel id = 2
-grid dim = (256,1,1)
-block dim = (256,1,1)
-shmem = 0
-nregs = 23
-binary version = 86
-cuda stream id = 0
-shmem base_addr = 0x00007edd79000000
-local mem base_addr = 0x00007edd77000000
-nvbit version = 1.7.6
-accelsim tracer version = 5
-enable lineinfo = 0
Header info loaded for kernel command : ./util/tracer_nvbit/BFS_traces/kernel-2-ctx_0x38a97040.traceg.xz
launching kernel name: _Z6KernelP4NodePiPbS2_S1_S2_i uid: 2 cuda_stream_id: 0
GPGPU-Sim uArch: Shader 8 bind to kernel 2 '_Z6KernelP4NodePiPbS2_S1_S2_i'
thread block = 0,0,0
GPGPU-Sim uArch: Shader 9 bind to kernel 2 '_Z6KernelP4NodePiPbS2_S1_S2_i'
thread block = 1,0,0
GPGPU-Sim uArch: Shader 10 bind to kernel 2 '_Z6KernelP4NodePiPbS2_S1_S2_i'
thread block = 2,0,0
GPGPU-Sim uArch: Shader 11 bind to kernel 2 '_Z6KernelP4NodePiPbS2_S1_S2_i'
thread block = 3,0,0
GPGPU-Sim uArch: Shader 12 bind to kernel 2 '_Z6KernelP4NodePiPbS2_S1_S2_i'
thread block = 4,0,0
GPGPU-Sim uArch: Shader 13 bind to kernel 2 '_Z6KernelP4NodePiPbS2_S1_S2_i'
thread block = 5,0,0
GPGPU-Sim uArch: Shader 14 bind to kernel 2 '_Z6KernelP4NodePiPbS2_S1_S2_i'
thread block = 6,0,0
GPGPU-Sim uArch: Shader 0 bind to kernel 2 '_Z6KernelP4NodePiPbS2_S1_S2_i'
thread block = 7,0,0
GPGPU-Sim uArch: Shader 1 bind to kernel 2 '_Z6KernelP4NodePiPbS2_S1_S2_i'
thread block = 8,0,0
GPGPU-Sim uArch: Shader 2 bind to kernel 2 '_Z6KernelP4NodePiPbS2_S1_S2_i'
thread block = 9,0,0
GPGPU-Sim uArch: Shader 3 bind to kernel 2 '_Z6KernelP4NodePiPbS2_S1_S2_i'
thread block = 10,0,0
GPGPU-Sim uArch: Shader 4 bind to kernel 2 '_Z6KernelP4NodePiPbS2_S1_S2_i'
thread block = 11,0,0
GPGPU-Sim uArch: Shader 5 bind to kernel 2 '_Z6KernelP4NodePiPbS2_S1_S2_i'
thread block = 12,0,0
GPGPU-Sim uArch: Shader 6 bind to kernel 2 '_Z6KernelP4NodePiPbS2_S1_S2_i'
thread block = 13,0,0
GPGPU-Sim uArch: Shader 7 bind to kernel 2 '_Z6KernelP4NodePiPbS2_S1_S2_i'
thread block = 14,0,0
thread block = 15,0,0
thread block = 16,0,0
thread block = 17,0,0
thread block = 18,0,0
thread block = 19,0,0
thread block = 20,0,0
thread block = 21,0,0
thread block = 22,0,0
thread block = 23,0,0
thread block = 24,0,0
thread block = 25,0,0
thread block = 26,0,0
thread block = 27,0,0
thread block = 28,0,0
thread block = 29,0,0
thread block = 30,0,0
thread block = 31,0,0
thread block = 32,0,0
thread block = 33,0,0
thread block = 34,0,0
thread block = 35,0,0
thread block = 36,0,0
thread block = 37,0,0
thread block = 38,0,0
thread block = 39,0,0
thread block = 40,0,0
thread block = 41,0,0
thread block = 42,0,0
thread block = 43,0,0
thread block = 44,0,0
thread block = 45,0,0
thread block = 46,0,0
thread block = 47,0,0
thread block = 48,0,0
thread block = 49,0,0
thread block = 50,0,0
thread block = 51,0,0
thread block = 52,0,0
thread block = 53,0,0
thread block = 54,0,0
thread block = 55,0,0
thread block = 56,0,0
thread block = 57,0,0
thread block = 58,0,0
thread block = 59,0,0
thread block = 60,0,0
thread block = 61,0,0
thread block = 62,0,0
thread block = 63,0,0
thread block = 64,0,0
thread block = 65,0,0
thread block = 66,0,0
thread block = 67,0,0
thread block = 68,0,0
thread block = 69,0,0
thread block = 70,0,0
thread block = 71,0,0
thread block = 72,0,0
thread block = 73,0,0
thread block = 74,0,0
thread block = 75,0,0
thread block = 76,0,0
thread block = 77,0,0
thread block = 78,0,0
thread block = 79,0,0
thread block = 80,0,0
thread block = 81,0,0
thread block = 82,0,0
thread block = 83,0,0
thread block = 84,0,0
thread block = 85,0,0
thread block = 86,0,0
thread block = 87,0,0
thread block = 88,0,0
thread block = 89,0,0
thread block = 90,0,0
thread block = 91,0,0
thread block = 92,0,0
thread block = 93,0,0
thread block = 94,0,0
thread block = 95,0,0
thread block = 96,0,0
thread block = 97,0,0
thread block = 98,0,0
thread block = 99,0,0
thread block = 100,0,0
thread block = 101,0,0
thread block = 102,0,0
thread block = 103,0,0
thread block = 104,0,0
thread block = 105,0,0
thread block = 106,0,0
thread block = 107,0,0
thread block = 108,0,0
thread block = 109,0,0
thread block = 110,0,0
thread block = 111,0,0
thread block = 112,0,0
thread block = 113,0,0
thread block = 114,0,0
thread block = 115,0,0
thread block = 116,0,0
thread block = 117,0,0
thread block = 118,0,0
thread block = 119,0,0
thread block = 120,0,0
thread block = 121,0,0
thread block = 122,0,0
thread block = 123,0,0
thread block = 124,0,0
thread block = 125,0,0
thread block = 126,0,0
thread block = 127,0,0
thread block = 128,0,0
thread block = 129,0,0
thread block = 130,0,0
thread block = 131,0,0
thread block = 132,0,0
thread block = 133,0,0
thread block = 134,0,0
thread block = 135,0,0
thread block = 136,0,0
thread block = 137,0,0
thread block = 138,0,0
thread block = 139,0,0
thread block = 140,0,0
thread block = 141,0,0
thread block = 142,0,0
thread block = 143,0,0
thread block = 144,0,0
thread block = 145,0,0
thread block = 146,0,0
thread block = 147,0,0
thread block = 148,0,0
thread block = 149,0,0
thread block = 150,0,0
thread block = 151,0,0
thread block = 152,0,0
thread block = 153,0,0
thread block = 154,0,0
thread block = 155,0,0
thread block = 156,0,0
thread block = 157,0,0
thread block = 158,0,0
thread block = 159,0,0
thread block = 160,0,0
thread block = 161,0,0
thread block = 162,0,0
thread block = 163,0,0
thread block = 164,0,0
thread block = 165,0,0
thread block = 166,0,0
thread block = 167,0,0
thread block = 168,0,0
thread block = 169,0,0
thread block = 170,0,0
thread block = 171,0,0
thread block = 172,0,0
thread block = 173,0,0
thread block = 174,0,0
thread block = 175,0,0
thread block = 176,0,0
thread block = 177,0,0
thread block = 178,0,0
thread block = 179,0,0
thread block = 180,0,0
thread block = 181,0,0
thread block = 182,0,0
thread block = 183,0,0
thread block = 184,0,0
thread block = 185,0,0
thread block = 186,0,0
thread block = 187,0,0
thread block = 188,0,0
thread block = 189,0,0
thread block = 190,0,0
thread block = 191,0,0
thread block = 192,0,0
thread block = 193,0,0
thread block = 194,0,0
thread block = 195,0,0
thread block = 196,0,0
thread block = 197,0,0
thread block = 198,0,0
thread block = 199,0,0
thread block = 200,0,0
thread block = 201,0,0
thread block = 202,0,0
thread block = 203,0,0
thread block = 204,0,0
thread block = 205,0,0
thread block = 206,0,0
thread block = 207,0,0
thread block = 208,0,0
thread block = 209,0,0
thread block = 210,0,0
thread block = 211,0,0
thread block = 212,0,0
thread block = 213,0,0
thread block = 214,0,0
thread block = 215,0,0
thread block = 216,0,0
thread block = 217,0,0
thread block = 218,0,0
thread block = 219,0,0
thread block = 220,0,0
thread block = 221,0,0
thread block = 222,0,0
thread block = 223,0,0
thread block = 224,0,0
thread block = 225,0,0
thread block = 226,0,0
thread block = 227,0,0
thread block = 228,0,0
thread block = 229,0,0
thread block = 230,0,0
thread block = 231,0,0
thread block = 232,0,0
thread block = 233,0,0
thread block = 234,0,0
thread block = 235,0,0
thread block = 236,0,0
thread block = 237,0,0
thread block = 238,0,0
thread block = 239,0,0
thread block = 240,0,0
thread block = 241,0,0
thread block = 242,0,0
thread block = 243,0,0
thread block = 244,0,0
thread block = 245,0,0
thread block = 246,0,0
thread block = 247,0,0
thread block = 248,0,0
thread block = 249,0,0
thread block = 250,0,0
thread block = 251,0,0
thread block = 252,0,0
thread block = 253,0,0
thread block = 254,0,0
thread block = 255,0,0
[...]
dram[4]:     none      none      none      none      none     3623879    965645    484132    970481    242600    none      none     1116064   1125343    none      none  
dram[5]:     none      none      none      none     2010020   3689748    none      961564    241742    493274   1069140    none     1108298   1136081    none      none  
maximum mf latency per bank:
dram[0]:       5702      5104      4979      3758      4917      5697      4755      5139      4384      5135      5114      5502      5504      4767      4745      4768
dram[1]:       2983      2916      2795      2919      2569      2076      2474      2663      2572      2409      2259      2562      2818      2959      2808      2750
dram[2]:       2375      2644      2236      2188      2037      1809      1976      1843      2561      2108      2107      2825      2789      2187      2396      2718
dram[3]:       2298      2631      2511      2488      2180      1856      2480      1969      2486      2033      1912      2118      2721      1855      2358      2260
dram[4]:       2186      2850      2481      1753      1577      2070      1827      2046      2188      2937      2789      2545      2342      2259      2350      2349
dram[5]:       2636      2443      2789      2022      2474      1683      2208      2493      2926      2259      2187      2170      2250      2730      1974      2197
Memory Partition 0: 
Cache L2_bank_000:
MSHR contents

Cache L2_bank_001:
MSHR contents

In Dram Latency Queue (total = 0): 
DRAM[0]: 16 bks, busW=4 BL=8 CL=12, tRRD=6 tCCD=2, tRCD=12 tRAS=28 tRP=12 tRC=40
n_cmd=2046646 n_nop=1965888 n_act=5493 n_pre=5477 n_ref_event=0 n_req=68506 n_rd=66100 n_rd_L2_A=0 n_write=0 n_wr_bk=3844 bw_util=0.06835
n_activity=392097 dram_eff=0.3568
bk0: 3632a 2031008i bk1: 3780a 2029222i bk2: 4192a 2033484i bk3: 4012a 2034840i bk4: 3568a 2030646i bk5: 3584a 2033169i bk6: 3692a 2027600i bk7: 3860a 2026306i bk8: 4048a 2025832i bk9: 4091a 2026399i bk10: 4567a 2026263i bk11: 4647a 2027907i bk12: 4618a 2020842i bk13: 4711a 2018272i bk14: 4600a 2023128i bk15: 4498a 2020122i 

------------------------------------------------------------------------

Row_Buffer_Locality = 0.919817
Row_Buffer_Locality_read = 0.935582
Row_Buffer_Locality_write = 0.486700
Bank_Level_Parallism = 1.554805
Bank_Level_Parallism_Col = 1.568138
Bank_Level_Parallism_Ready = 1.159984
write_to_read_ratio_blp_rw_average = 0.227807
GrpLevelPara = 1.345158 

BW Util details:
bwutil = 0.068350 
total_CMD = 2046646 
util_bw = 139888 
Wasted_Col = 84844 
Wasted_Row = 44960 
Idle = 1776954 

BW Util Bottlenecks: 
RCDc_limit = 43312 
RCDWRc_limit = 6175 
WTRc_limit = 5328 
RTWc_limit = 29636 
CCDLc_limit = 24596 
rwq = 0 
CCDLc_limit_alone = 21756 
WTRc_limit_alone = 5119 
RTWc_limit_alone = 27005 

Commands details: 
total_CMD = 2046646 
n_nop = 1965888 
Read = 66100 
Write = 0 
L2_Alloc = 0 
L2_WB = 3844 
n_act = 5493 
n_pre = 5477 
n_ref = 0 
n_req = 68506 
total_req = 69944 

Dual Bus Interface Util: 
issued_total_row = 10970 
issued_total_col = 69944 
Row_Bus_Util =  0.005360 
CoL_Bus_Util = 0.034175 
Either_Row_CoL_Bus_Util = 0.039459 
Issued_on_Two_Bus_Simul_Util = 0.000076 
issued_two_Eff = 0.001932 
queue_avg = 0.414581 


dram_util_bins: 0 0 0 0 0 0 0 0 0 0
dram_eff_bins: 0 0 0 0 0 0 0 0 0 0
mrqq: max=64 avg=0.414581
Memory Partition 1: 
Cache L2_bank_002:
MSHR contents

Cache L2_bank_003:
MSHR contents

In Dram Latency Queue (total = 0): 
DRAM[1]: 16 bks, busW=4 BL=8 CL=12, tRRD=6 tCCD=2, tRCD=12 tRAS=28 tRP=12 tRC=40
n_cmd=2046646 n_nop=1966944 n_act=5342 n_pre=5326 n_ref_event=0 n_req=67780 n_rd=65422 n_rd_L2_A=0 n_write=0 n_wr_bk=3749 bw_util=0.06759
n_activity=383368 dram_eff=0.3609
bk0: 3620a 2030445i bk1: 3640a 2029647i bk2: 4008a 2032954i bk3: 4036a 2033748i bk4: 3704a 2031885i bk5: 3896a 2030224i bk6: 3775a 2027078i bk7: 3668a 2025288i bk8: 3796a 2027675i bk9: 3808a 2026209i bk10: 4379a 2029599i bk11: 4528a 2029316i bk12: 4711a 2022315i bk13: 4664a 2020797i bk14: 4654a 2021382i bk15: 4535a 2019626i 

------------------------------------------------------------------------

Row_Buffer_Locality = 0.921186
Row_Buffer_Locality_read = 0.937177
Row_Buffer_Locality_write = 0.477523
Bank_Level_Parallism = 1.574337
Bank_Level_Parallism_Col = 1.587660
Bank_Level_Parallism_Ready = 1.172181
write_to_read_ratio_blp_rw_average = 0.224154
GrpLevelPara = 1.348282 

BW Util details:
bwutil = 0.067594 
total_CMD = 2046646 
util_bw = 138342 
Wasted_Col = 82593 
Wasted_Row = 42990 
Idle = 1782721 

BW Util Bottlenecks: 
RCDc_limit = 41970 
RCDWRc_limit = 6189 
WTRc_limit = 4987 
RTWc_limit = 29299 
CCDLc_limit = 24538 
rwq = 0 
CCDLc_limit_alone = 21746 
WTRc_limit_alone = 4794 
RTWc_limit_alone = 26700 

Commands details: 
total_CMD = 2046646 
n_nop = 1966944 
Read = 65422 
Write = 0 
L2_Alloc = 0 
L2_WB = 3749 
n_act = 5342 
n_pre = 5326 
n_ref = 0 
n_req = 67780 
total_req = 69171 

Dual Bus Interface Util: 
issued_total_row = 10668 
issued_total_col = 69171 
Row_Bus_Util =  0.005212 
CoL_Bus_Util = 0.033797 
Either_Row_CoL_Bus_Util = 0.038943 
Issued_on_Two_Bus_Simul_Util = 0.000067 
issued_two_Eff = 0.001719 
queue_avg = 0.402013 


dram_util_bins: 0 0 0 0 0 0 0 0 0 0
dram_eff_bins: 0 0 0 0 0 0 0 0 0 0
mrqq: max=62 avg=0.402013
Memory Partition 2: 
Cache L2_bank_004:
MSHR contents

Cache L2_bank_005:
MSHR contents

In Dram Latency Queue (total = 0): 
DRAM[2]: 16 bks, busW=4 BL=8 CL=12, tRRD=6 tCCD=2, tRCD=12 tRAS=28 tRP=12 tRC=40
n_cmd=2046646 n_nop=2028105 n_act=766 n_pre=750 n_ref_event=0 n_req=17020 n_rd=17007 n_rd_L2_A=0 n_write=0 n_wr_bk=26 bw_util=0.01664
n_activity=92483 dram_eff=0.3683
bk0: 936a 2045105i bk1: 984a 2044744i bk2: 988a 2045386i bk3: 952a 2045049i bk4: 992a 2044590i bk5: 1056a 2044642i bk6: 956a 2045009i bk7: 992a 2044702i bk8: 1048a 2044305i bk9: 1072a 2044638i bk10: 1060a 2045136i bk11: 1107a 2045217i bk12: 1193a 2044668i bk13: 1235a 2045089i bk14: 1212a 2044096i bk15: 1224a 2044235i 

------------------------------------------------------------------------

Row_Buffer_Locality = 0.954994
Row_Buffer_Locality_read = 0.955607
Row_Buffer_Locality_write = 0.153846
Bank_Level_Parallism = 1.111767
Bank_Level_Parallism_Col = 1.098462
Bank_Level_Parallism_Ready = 1.020472
write_to_read_ratio_blp_rw_average = 0.007109
GrpLevelPara = 1.082443 

BW Util details:
bwutil = 0.016645 
total_CMD = 2046646 
util_bw = 34066 
Wasted_Col = 11572 
Wasted_Row = 7680 
Idle = 1993328 

BW Util Bottlenecks: 
RCDc_limit = 8267 
RCDWRc_limit = 66 
WTRc_limit = 35 
RTWc_limit = 144 
CCDLc_limit = 3565 
rwq = 0 
CCDLc_limit_alone = 3556 
WTRc_limit_alone = 33 
RTWc_limit_alone = 137 

Commands details: 
total_CMD = 2046646 
n_nop = 2028105 
Read = 17007 
Write = 0 
L2_Alloc = 0 
L2_WB = 26 
n_act = 766 
n_pre = 750 
n_ref = 0 
n_req = 17020 
total_req = 17033 

Dual Bus Interface Util: 
issued_total_row = 1516 
issued_total_col = 17033 
Row_Bus_Util =  0.000741 
CoL_Bus_Util = 0.008322 
Either_Row_CoL_Bus_Util = 0.009059 
Issued_on_Two_Bus_Simul_Util = 0.000004 
issued_two_Eff = 0.000431 
queue_avg = 0.034569 


dram_util_bins: 0 0 0 0 0 0 0 0 0 0
dram_eff_bins: 0 0 0 0 0 0 0 0 0 0
mrqq: max=14 avg=0.0345692
Memory Partition 3: 
Cache L2_bank_006:
MSHR contents

Cache L2_bank_007:
MSHR contents

In Dram Latency Queue (total = 0): 
DRAM[3]: 16 bks, busW=4 BL=8 CL=12, tRRD=6 tCCD=2, tRCD=12 tRAS=28 tRP=12 tRC=40
n_cmd=2046646 n_nop=2028202 n_act=722 n_pre=706 n_ref_event=0 n_req=17010 n_rd=17000 n_rd_L2_A=0 n_write=0 n_wr_bk=20 bw_util=0.01663
n_activity=90977 dram_eff=0.3742
bk0: 972a 2045135i bk1: 968a 2045027i bk2: 980a 2045257i bk3: 980a 2045342i bk4: 1040a 2044297i bk5: 1044a 2044589i bk6: 980a 2044792i bk7: 976a 2044380i bk8: 992a 2044729i bk9: 1036a 2044679i bk10: 1100a 2045116i bk11: 1124a 2045249i bk12: 1205a 2045068i bk13: 1231a 2044837i bk14: 1197a 2044391i bk15: 1175a 2044281i 

------------------------------------------------------------------------

Row_Buffer_Locality = 0.957554
Row_Buffer_Locality_read = 0.958118
Row_Buffer_Locality_write = 0.000000
Bank_Level_Parallism = 1.118167
Bank_Level_Parallism_Col = 1.114040
Bank_Level_Parallism_Ready = 1.029768
write_to_read_ratio_blp_rw_average = 0.007796
GrpLevelPara = 1.091510 

BW Util details:
bwutil = 0.016632 
total_CMD = 2046646 
util_bw = 34040 
Wasted_Col = 11046 
Wasted_Row = 7439 
Idle = 1994121 

BW Util Bottlenecks: 
RCDc_limit = 7709 
RCDWRc_limit = 59 
WTRc_limit = 29 
RTWc_limit = 132 
CCDLc_limit = 3532 
rwq = 0 
CCDLc_limit_alone = 3521 
WTRc_limit_alone = 28 
RTWc_limit_alone = 122 

Commands details: 
total_CMD = 2046646 
n_nop = 2028202 
Read = 17000 
Write = 0 
L2_Alloc = 0 
L2_WB = 20 
n_act = 722 
n_pre = 706 
n_ref = 0 
n_req = 17010 
total_req = 17020 

Dual Bus Interface Util: 
issued_total_row = 1428 
issued_total_col = 17020 
Row_Bus_Util =  0.000698 
CoL_Bus_Util = 0.008316 
Either_Row_CoL_Bus_Util = 0.009012 
Issued_on_Two_Bus_Simul_Util = 0.000002 
issued_two_Eff = 0.000217 
queue_avg = 0.034049 


dram_util_bins: 0 0 0 0 0 0 0 0 0 0
dram_eff_bins: 0 0 0 0 0 0 0 0 0 0
mrqq: max=13 avg=0.0340489
Memory Partition 4: 
Cache L2_bank_008:
MSHR contents

Cache L2_bank_009:
MSHR contents

In Dram Latency Queue (total = 0): 
DRAM[4]: 16 bks, busW=4 BL=8 CL=12, tRRD=6 tCCD=2, tRCD=12 tRAS=28 tRP=12 tRC=40
n_cmd=2046646 n_nop=2027972 n_act=788 n_pre=772 n_ref_event=0 n_req=17107 n_rd=17096 n_rd_L2_A=0 n_write=0 n_wr_bk=22 bw_util=0.01673
n_activity=92582 dram_eff=0.3698
bk0: 968a 2044867i bk1: 984a 2044653i bk2: 984a 2045144i bk3: 988a 2045101i bk4: 1072a 2044330i bk5: 1044a 2044473i bk6: 964a 2044574i bk7: 960a 2044504i bk8: 1020a 2044867i bk9: 1020a 2044587i bk10: 1112a 2045024i bk11: 1164a 2045222i bk12: 1184a 2044731i bk13: 1223a 2044995i bk14: 1215a 2044156i bk15: 1194a 2044119i 

------------------------------------------------------------------------

Row_Buffer_Locality = 0.953937
Row_Buffer_Locality_read = 0.954551
Row_Buffer_Locality_write = 0.000000
Bank_Level_Parallism = 1.123415
Bank_Level_Parallism_Col = 1.111321
Bank_Level_Parallism_Ready = 1.026213
write_to_read_ratio_blp_rw_average = 0.006510
GrpLevelPara = 1.090529 

BW Util details:
bwutil = 0.016728 
total_CMD = 2046646 
util_bw = 34236 
Wasted_Col = 11718 
Wasted_Row = 7837 
Idle = 1992855 

BW Util Bottlenecks: 
RCDc_limit = 8292 
RCDWRc_limit = 53 
WTRc_limit = 10 
RTWc_limit = 135 
CCDLc_limit = 3678 
rwq = 0 
CCDLc_limit_alone = 3671 
WTRc_limit_alone = 9 
RTWc_limit_alone = 129 

Commands details: 
total_CMD = 2046646 
n_nop = 2027972 
Read = 17096 
Write = 0 
L2_Alloc = 0 
L2_WB = 22 
n_act = 788 
n_pre = 772 
n_ref = 0 
n_req = 17107 
total_req = 17118 

Dual Bus Interface Util: 
issued_total_row = 1560 
issued_total_col = 17118 
Row_Bus_Util =  0.000762 
CoL_Bus_Util = 0.008364 
Either_Row_CoL_Bus_Util = 0.009124 
Issued_on_Two_Bus_Simul_Util = 0.000002 
issued_two_Eff = 0.000214 
queue_avg = 0.037196 


dram_util_bins: 0 0 0 0 0 0 0 0 0 0
dram_eff_bins: 0 0 0 0 0 0 0 0 0 0
mrqq: max=14 avg=0.0371965
Memory Partition 5: 
Cache L2_bank_010:
MSHR contents

Cache L2_bank_011:
MSHR contents

In Dram Latency Queue (total = 0): 
DRAM[5]: 16 bks, busW=4 BL=8 CL=12, tRRD=6 tCCD=2, tRCD=12 tRAS=28 tRP=12 tRC=40
n_cmd=2046646 n_nop=2028220 n_act=757 n_pre=741 n_ref_event=0 n_req=16923 n_rd=16910 n_rd_L2_A=0 n_write=0 n_wr_bk=26 bw_util=0.01655
n_activity=91427 dram_eff=0.3705
bk0: 988a 2044933i bk1: 948a 2044743i bk2: 980a 2044866i bk3: 928a 2045091i bk4: 1044a 2044334i bk5: 1020a 2044694i bk6: 904a 2045161i bk7: 964a 2044962i bk8: 1032a 2044654i bk9: 1024a 2044695i bk10: 1120a 2045244i bk11: 1139a 2045378i bk12: 1139a 2044982i bk13: 1244a 2044660i bk14: 1192a 2044151i bk15: 1244a 2044062i 

------------------------------------------------------------------------

Row_Buffer_Locality = 0.955268
Row_Buffer_Locality_read = 0.955943
Row_Buffer_Locality_write = 0.076923
Bank_Level_Parallism = 1.115306
Bank_Level_Parallism_Col = 1.105862
Bank_Level_Parallism_Ready = 1.024015
write_to_read_ratio_blp_rw_average = 0.006355
GrpLevelPara = 1.082395 

BW Util details:
bwutil = 0.016550 
total_CMD = 2046646 
util_bw = 33872 
Wasted_Col = 11401 
Wasted_Row = 7646 
Idle = 1993727 

BW Util Bottlenecks: 
RCDc_limit = 8028 
RCDWRc_limit = 64 
WTRc_limit = 28 
RTWc_limit = 130 
CCDLc_limit = 3590 
rwq = 0 
CCDLc_limit_alone = 3581 
WTRc_limit_alone = 28 
RTWc_limit_alone = 121 

Commands details: 
total_CMD = 2046646 
n_nop = 2028220 
Read = 16910 
Write = 0 
L2_Alloc = 0 
L2_WB = 26 
n_act = 757 
n_pre = 741 
n_ref = 0 
n_req = 16923 
total_req = 16936 

Dual Bus Interface Util: 
issued_total_row = 1498 
issued_total_col = 16936 
Row_Bus_Util =  0.000732 
CoL_Bus_Util = 0.008275 
Either_Row_CoL_Bus_Util = 0.009003 
Issued_on_Two_Bus_Simul_Util = 0.000004 
issued_two_Eff = 0.000434 
queue_avg = 0.035118 


dram_util_bins: 0 0 0 0 0 0 0 0 0 0
dram_eff_bins: 0 0 0 0 0 0 0 0 0 0
mrqq: max=13 avg=0.0351179

========= L2 cache stats =========
L2_cache_bank[0]: Access = 354672, Miss = 32727, Miss_rate = 0.092, Pending_hits = 24, Reservation_fails = 0
L2_cache_bank[1]: Access = 387896, Miss = 38420, Miss_rate = 0.099, Pending_hits = 22, Reservation_fails = 0
L2_cache_bank[2]: Access = 355203, Miss = 33899, Miss_rate = 0.095, Pending_hits = 24, Reservation_fails = 0
L2_cache_bank[3]: Access = 358337, Miss = 36498, Miss_rate = 0.102, Pending_hits = 37, Reservation_fails = 0
L2_cache_bank[4]: Access = 184553, Miss = 8683, Miss_rate = 0.047, Pending_hits = 10, Reservation_fails = 0
L2_cache_bank[5]: Access = 172525, Miss = 9004, Miss_rate = 0.052, Pending_hits = 9, Reservation_fails = 0
L2_cache_bank[6]: Access = 184467, Miss = 8762, Miss_rate = 0.047, Pending_hits = 6, Reservation_fails = 0
L2_cache_bank[7]: Access = 171957, Miss = 8909, Miss_rate = 0.052, Pending_hits = 7, Reservation_fails = 0
L2_cache_bank[8]: Access = 174662, Miss = 8734, Miss_rate = 0.050, Pending_hits = 16, Reservation_fails = 0
L2_cache_bank[9]: Access = 178025, Miss = 9040, Miss_rate = 0.051, Pending_hits = 18, Reservation_fails = 0
L2_cache_bank[10]: Access = 173872, Miss = 8615, Miss_rate = 0.050, Pending_hits = 12, Reservation_fails = 0
L2_cache_bank[11]: Access = 177177, Miss = 8958, Miss_rate = 0.051, Pending_hits = 18, Reservation_fails = 0
L2_total_cache_accesses = 2873346
L2_total_cache_misses = 212249
L2_total_cache_miss_rate = 0.0739
L2_total_cache_pending_hits = 203
L2_total_cache_reservation_fails = 0
L2_total_cache_breakdown:
	L2_cache_stats_breakdown[GLOBAL_ACC_R][HIT] = 2330073
	L2_cache_stats_breakdown[GLOBAL_ACC_R][HIT_RESERVED] = 144
	L2_cache_stats_breakdown[GLOBAL_ACC_R][MISS] = 46811
	L2_cache_stats_breakdown[GLOBAL_ACC_R][RESERVATION_FAIL] = 0
	L2_cache_stats_breakdown[GLOBAL_ACC_R][SECTOR_MISS] = 152724
	L2_cache_stats_breakdown[GLOBAL_ACC_R][MSHR_HIT] = 144
	L2_cache_stats_breakdown[LOCAL_ACC_R][HIT] = 0
	L2_cache_stats_breakdown[LOCAL_ACC_R][HIT_RESERVED] = 0
	L2_cache_stats_breakdown[LOCAL_ACC_R][MISS] = 0
	L2_cache_stats_breakdown[LOCAL_ACC_R][RESERVATION_FAIL] = 0
	L2_cache_stats_breakdown[LOCAL_ACC_R][SECTOR_MISS] = 0
	L2_cache_stats_breakdown[LOCAL_ACC_R][MSHR_HIT] = 0
	L2_cache_stats_breakdown[CONST_ACC_R][HIT] = 0
	L2_cache_stats_breakdown[CONST_ACC_R][HIT_RESERVED] = 0
	L2_cache_stats_breakdown[CONST_ACC_R][MISS] = 0
	L2_cache_stats_breakdown[CONST_ACC_R][RESERVATION_FAIL] = 0
	L2_cache_stats_breakdown[CONST_ACC_R][SECTOR_MISS] = 0
	L2_cache_stats_breakdown[CONST_ACC_R][MSHR_HIT] = 0
	L2_cache_stats_breakdown[TEXTURE_ACC_R][HIT] = 0
	L2_cache_stats_breakdown[TEXTURE_ACC_R][HIT_RESERVED] = 0
	L2_cache_stats_breakdown[TEXTURE_ACC_R][MISS] = 0
	L2_cache_stats_breakdown[TEXTURE_ACC_R][RESERVATION_FAIL] = 0
	L2_cache_stats_breakdown[TEXTURE_ACC_R][SECTOR_MISS] = 0
	L2_cache_stats_breakdown[TEXTURE_ACC_R][MSHR_HIT] = 0
	L2_cache_stats_breakdown[GLOBAL_ACC_W][HIT] = 330821
	L2_cache_stats_breakdown[GLOBAL_ACC_W][HIT_RESERVED] = 59
	L2_cache_stats_breakdown[GLOBAL_ACC_W][MISS] = 5128
	L2_cache_stats_breakdown[GLOBAL_ACC_W][RESERVATION_FAIL] = 0
	L2_cache_stats_breakdown[GLOBAL_ACC_W][SECTOR_MISS] = 7586
	L2_cache_stats_breakdown[GLOBAL_ACC_W][MSHR_HIT] = 0
	L2_cache_stats_breakdown[LOCAL_ACC_W][HIT] = 0
	L2_cache_stats_breakdown[LOCAL_ACC_W][HIT_RESERVED] = 0
	L2_cache_stats_breakdown[LOCAL_ACC_W][MISS] = 0
	L2_cache_stats_breakdown[LOCAL_ACC_W][RESERVATION_FAIL] = 0
	L2_cache_stats_breakdown[LOCAL_ACC_W][SECTOR_MISS] = 0
	L2_cache_stats_breakdown[LOCAL_ACC_W][MSHR_HIT] = 0
	L2_cache_stats_breakdown[L1_WRBK_ACC][HIT] = 0
	L2_cache_stats_breakdown[L1_WRBK_ACC][HIT_RESERVED] = 0
	L2_cache_stats_breakdown[L1_WRBK_ACC][MISS] = 0
	L2_cache_stats_breakdown[L1_WRBK_ACC][RESERVATION_FAIL] = 0
	L2_cache_stats_breakdown[L1_WRBK_ACC][SECTOR_MISS] = 0
	L2_cache_stats_breakdown[L1_WRBK_ACC][MSHR_HIT] = 0
	L2_cache_stats_breakdown[L2_WRBK_ACC][HIT] = 0
	L2_cache_stats_breakdown[L2_WRBK_ACC][HIT_RESERVED] = 0
	L2_cache_stats_breakdown[L2_WRBK_ACC][MISS] = 0
	L2_cache_stats_breakdown[L2_WRBK_ACC][RESERVATION_FAIL] = 0
	L2_cache_stats_breakdown[L2_WRBK_ACC][SECTOR_MISS] = 0
	L2_cache_stats_breakdown[L2_WRBK_ACC][MSHR_HIT] = 0
	L2_cache_stats_breakdown[INST_ACC_R][HIT] = 0
	L2_cache_stats_breakdown[INST_ACC_R][HIT_RESERVED] = 0
	L2_cache_stats_breakdown[INST_ACC_R][MISS] = 0
	L2_cache_stats_breakdown[INST_ACC_R][RESERVATION_FAIL] = 0
	L2_cache_stats_breakdown[INST_ACC_R][SECTOR_MISS] = 0
	L2_cache_stats_breakdown[INST_ACC_R][MSHR_HIT] = 0
	L2_cache_stats_breakdown[L1_WR_ALLOC_R][HIT] = 0
	L2_cache_stats_breakdown[L1_WR_ALLOC_R][HIT_RESERVED] = 0
	L2_cache_stats_breakdown[L1_WR_ALLOC_R][MISS] = 0
	L2_cache_stats_breakdown[L1_WR_ALLOC_R][RESERVATION_FAIL] = 0
	L2_cache_stats_breakdown[L1_WR_ALLOC_R][SECTOR_MISS] = 0
	L2_cache_stats_breakdown[L1_WR_ALLOC_R][MSHR_HIT] = 0
	L2_cache_stats_breakdown[L2_WR_ALLOC_R][HIT] = 0
	L2_cache_stats_breakdown[L2_WR_ALLOC_R][HIT_RESERVED] = 0
	L2_cache_stats_breakdown[L2_WR_ALLOC_R][MISS] = 0
	L2_cache_stats_breakdown[L2_WR_ALLOC_R][RESERVATION_FAIL] = 0
	L2_cache_stats_breakdown[L2_WR_ALLOC_R][SECTOR_MISS] = 0
	L2_cache_stats_breakdown[L2_WR_ALLOC_R][MSHR_HIT] = 0
	L2_cache_stats_breakdown[GLOBAL_ACC_R][TOTAL_ACCESS] = 2529752
	L2_cache_stats_breakdown[GLOBAL_ACC_W][TOTAL_ACCESS] = 343594
L2_total_cache_reservation_fail_breakdown:
L2_cache_data_port_util = 0.335
L2_cache_fill_port_util = 0.025

icnt_total_pkts_mem_to_simt=2873346
icnt_total_pkts_simt_to_mem=976032
LD_mem_lat_dist  0 0 0 0 0 0 0 0 0 0 0 0 0 0 0 0 0 0 0 0 0 0 0 0 0 0 0
ST_mem_lat_dist  0 0 0 0 0 0 0 0 0 0 0 0 0 0 0 0 0 0 0 0 0 0 0 0 0 0 0
----------------------------Interconnect-DETAILS--------------------------------
Req_Network_injected_packets_num = 976032
Req_Network_cycles = 661850
Req_Network_injected_packets_per_cycle =       1.4747 
Req_Network_conflicts_per_cycle =       0.5237
Req_Network_conflicts_per_cycle_util =       0.6965
Req_Bank_Level_Parallism =       1.9616
Req_Network_in_buffer_full_per_cycle =       0.0000
Req_Network_in_buffer_avg_util =       0.8917
Req_Network_out_buffer_full_per_cycle =       0.0368
Req_Network_out_buffer_avg_util =      16.4909

Reply_Network_injected_packets_num = 2873346
Reply_Network_cycles = 661850
Reply_Network_injected_packets_per_cycle =        4.3414
Reply_Network_conflicts_per_cycle =        3.6703
Reply_Network_conflicts_per_cycle_util =       4.0989
Reply_Bank_Level_Parallism =       4.8483
Reply_Network_in_buffer_full_per_cycle =       0.3113
Reply_Network_in_buffer_avg_util =      77.0271
Reply_Network_out_buffer_full_per_cycle =       0.0000
Reply_Network_out_buffer_avg_util =       0.2894
----------------------------END-of-Interconnect-DETAILS-------------------------


gpgpu_simulation_time = 0 days, 0 hrs, 1 min, 20 sec (80 sec)
gpgpu_simulation_rate = 200779 (inst/sec)
gpgpu_simulation_rate = 8273 (cycle/sec)
gpgpu_silicon_slowdown = 136830x
GPGPU-Sim: *** simulation thread exiting ***
GPGPU-Sim: *** exit detected ***
