Accel-Sim [build accelsim-commit-9be0e3c_modified_0.0_26-02-04-01-45-14]

        *** GPGPU-Sim Simulator Version 4.2.0  [build gpgpu-sim_git-commit-6c3cf4ff_modified_0.0] ***


GPGPU-Sim: Configuration options:

-save_embedded_ptx                      0 # saves ptx files embedded in binary as <n>.ptx
-keep                                   0 # keep intermediate files created by GPGPU-Sim when interfacing with external programs
-gpgpu_ptx_save_converted_ptxplus                    0 # Saved converted ptxplus to a file
-gpgpu_occupancy_sm_number                   86 # The SM number to pass to ptxas when getting register usage for computing GPU occupancy. This parameter is required in the config.
-ptx_opcode_latency_int           4,4,4,4,21 # Opcode latencies for integers <ADD,MAX,MUL,MAD,DIV,SHFL>Default 1,1,19,25,145,32
-ptx_opcode_latency_fp           4,4,4,4,39 # Opcode latencies for single precision floating points <ADD,MAX,MUL,MAD,DIV>Default 1,1,1,1,30
-ptx_opcode_latency_dp      64,64,64,64,330 # Opcode latencies for double precision floating points <ADD,MAX,MUL,MAD,DIV>Default 8,8,8,8,335
-ptx_opcode_latency_sfu                   21 # Opcode latencies for SFU instructionsDefault 8
-ptx_opcode_latency_tesnor                   64 # Opcode latencies for Tensor instructionsDefault 64
-ptx_opcode_initiation_int            2,2,2,2,2 # Opcode initiation intervals for integers <ADD,MAX,MUL,MAD,DIV,SHFL>Default 1,1,4,4,32,4
-ptx_opcode_initiation_fp            1,1,1,1,2 # Opcode initiation intervals for single precision floating points <ADD,MAX,MUL,MAD,DIV>Default 1,1,1,1,5
-ptx_opcode_initiation_dp      64,64,64,64,130 # Opcode initiation intervals for double precision floating points <ADD,MAX,MUL,MAD,DIV>Default 8,8,8,8,130
-ptx_opcode_initiation_sfu                    8 # Opcode initiation intervals for sfu instructionsDefault 8
-ptx_opcode_initiation_tensor                   64 # Opcode initiation intervals for tensor instructionsDefault 64
-cdp_latency         7200,8000,100,12000,1600 # CDP API latency <cudaStreamCreateWithFlags, cudaGetParameterBufferV2_init_perWarp, cudaGetParameterBufferV2_perKernel, cudaLaunchDeviceV2_init_perWarp, cudaLaunchDevicV2_perKernel>Default 7200,8000,100,12000,1600
-network_mode                           2 # Interconnection network mode
-inter_config_file                   mesh # Interconnection network config file
-icnt_in_buffer_limit                  512 # in_buffer_limit
-icnt_out_buffer_limit                  512 # out_buffer_limit
-icnt_subnets                           2 # subnets
-icnt_arbiter_algo                      1 # arbiter_algo
-icnt_verbose                           0 # inct_verbose
-icnt_grant_cycles                      1 # grant_cycles
-gpgpu_ptx_use_cuobjdump                    1 # Use cuobjdump to extract ptx and sass from binaries
-gpgpu_experimental_lib_support                    0 # Try to extract code from cuda libraries [Broken because of unknown cudaGetExportTable]
-checkpoint_option                      0 #  checkpointing flag (0 = no checkpoint)
-checkpoint_kernel                      1 #  checkpointing during execution of which kernel (1- 1st kernel)
-checkpoint_CTA                         0 #  checkpointing after # of CTA (< less than total CTA)
-resume_option                          0 #  resume flag (0 = no resume)
-resume_kernel                          0 #  Resume from which kernel (1= 1st kernel)
-resume_CTA                             0 #  resume from which CTA 
-checkpoint_CTA_t                       0 #  resume from which CTA 
-checkpoint_insn_Y                      0 #  resume from which CTA 
-gpgpu_ptx_convert_to_ptxplus                    0 # Convert SASS (native ISA) to ptxplus and run ptxplus
-gpgpu_ptx_force_max_capability                   86 # Force maximum compute capability
-gpgpu_ptx_inst_debug_to_file                    0 # Dump executed instructions' debug information to file
-gpgpu_ptx_inst_debug_file       inst_debug.txt # Executed instructions' debug output file
-gpgpu_ptx_inst_debug_thread_uid                    1 # Thread UID for executed instructions' debug output
-gpgpu_simd_model                       1 # 1 = post-dominator
-gpgpu_shader_core_pipeline              1536:32 # shader core pipeline config, i.e., {<nthread>:<warpsize>}
-gpgpu_tex_cache:l1  N:4:128:256,L:R:m:N:L,T:512:8,128:2 # per-shader L1 texture cache  (READ-ONLY) config  {<nsets>:<bsize>:<assoc>,<rep>:<wr>:<alloc>:<wr_alloc>,<mshr>:<N>:<merge>,<mq>:<rf>}
-gpgpu_const_cache:l1 N:128:64:8,L:R:f:N:L,S:2:64,4 # per-shader L1 constant memory cache  (READ-ONLY) config  {<nsets>:<bsize>:<assoc>,<rep>:<wr>:<alloc>:<wr_alloc>,<mshr>:<N>:<merge>,<mq>} 
-gpgpu_cache:il1     N:64:128:16,L:R:f:N:L,S:2:48,4 # shader L1 instruction cache config  {<sector?>:<nsets>:<bsize>:<assoc>,<rep>:<wr>:<alloc>:<wr_alloc>:<set_index_fn>,<mshr>:<N>:<merge>,<mq>} 
-gpgpu_cache:dl1     N:32:128:4,L:L:m:N:H,S:64:8,8 # per-shader L1 data cache config  {<sector?>:<nsets>:<bsize>:<assoc>,<rep>:<wr>:<alloc>:<wr_alloc>:<set_index_fn>,<mshr>:<N>:<merge>,<mq>:<fifo_entry>,<data_port_width> | none}
-gpgpu_l1_cache_write_ratio                    0 # L1D write ratio
-gpgpu_l1_banks                         1 # The number of L1 cache banks
-gpgpu_l1_banks_byte_interleaving                   32 # l1 banks byte interleaving granularity
-gpgpu_l1_banks_hashing_function                    0 # l1 banks hashing function
-gpgpu_l1_latency                      35 # L1 Hit Latency
-gpgpu_smem_latency                    29 # smem Latency
-gpgpu_cache:dl1PrefL1                 none # per-shader L1 data cache config  {<sector?>:<nsets>:<bsize>:<assoc>,<rep>:<wr>:<alloc>:<wr_alloc>:<set_index_fn>,<mshr>:<N>:<merge>,<mq>:<fifo_entry>,<data_port_width> | none}
-gpgpu_cache:dl1PrefShared                 none # per-shader L1 data cache config  {<sector?>:<nsets>:<bsize>:<assoc>,<rep>:<wr>:<alloc>:<wr_alloc>:<set_index_fn>,<mshr>:<N>:<merge>,<mq>:<fifo_entry>,<data_port_width> | none}
-gpgpu_gmem_skip_L1D                    1 # global memory access skip L1D cache (implements -Xptxas -dlcm=cg, default=no skip)
-gpgpu_perfect_mem                      0 # enable perfect memory mode (no cache miss)
-n_regfile_gating_group                    4 # group of lanes that should be read/written together)
-gpgpu_clock_gated_reg_file                    0 # enable clock gated reg file for power calculations
-gpgpu_clock_gated_lanes                    0 # enable clock gated lanes for power calculations
-gpgpu_shader_registers                65536 # Number of registers per shader core. Limits number of concurrent CTAs. (default 8192)
-gpgpu_registers_per_block                65536 # Maximum number of registers per CTA. (default 8192)
-gpgpu_ignore_resources_limitation                    0 # gpgpu_ignore_resources_limitation (default 0)
-gpgpu_shader_cta                       8 # Maximum number of concurrent CTAs in shader (default 32)
-gpgpu_num_cta_barriers                   16 # Maximum number of named barriers per CTA (default 16)
-gpgpu_n_clusters                      15 # number of processing clusters
-gpgpu_n_cores_per_cluster                    1 # number of simd cores per cluster
-gpgpu_n_cluster_ejection_buffer_size                   32 # number of packets in ejection buffer
-gpgpu_n_ldst_response_buffer_size                    2 # number of response packets in ld/st unit ejection buffer
-gpgpu_shmem_per_block                49152 # Size of shared memory per thread block or CTA (default 48kB)
-gpgpu_shmem_size                  102400 # Size of shared memory per shader core (default 16kB)
-gpgpu_shmem_option                     0 # Option list of shared memory sizes
-gpgpu_unified_l1d_size                    0 # Size of unified data cache(L1D + shared memory) in KB
-gpgpu_adaptive_cache_config                    0 # adaptive_cache_config
-gpgpu_shmem_sizeDefault               102400 # Size of shared memory per shader core (default 16kB)
-gpgpu_shmem_size_PrefL1                16384 # Size of shared memory per shader core (default 16kB)
-gpgpu_shmem_size_PrefShared                16384 # Size of shared memory per shader core (default 16kB)
-gpgpu_shmem_num_banks                   32 # Number of banks in the shared memory in each shader core (default 16)
-gpgpu_shmem_limited_broadcast                    0 # Limit shared memory to do one broadcast per cycle (default on)
-gpgpu_shmem_warp_parts                    1 # Number of portions a warp is divided into for shared memory bank conflict check 
-gpgpu_mem_unit_ports                    1 # The number of memory transactions allowed per core cycle
-gpgpu_shmem_warp_parts                    1 # Number of portions a warp is divided into for shared memory bank conflict check 
-gpgpu_warpdistro_shader                   -1 # Specify which shader core to collect the warp size distribution from
-gpgpu_warp_issue_shader                    0 # Specify which shader core to collect the warp issue distribution from
-gpgpu_local_mem_map                    1 # Mapping from local memory space address to simulated GPU physical address space (default = enabled)
-gpgpu_num_reg_banks                    8 # Number of register banks (default = 8)
-gpgpu_reg_bank_use_warp_id                    0 # Use warp ID in mapping registers to banks (default = off)
-gpgpu_sub_core_model                    1 # Sub Core Volta/Pascal model (default = off)
-gpgpu_enable_specialized_operand_collector                    0 # enable_specialized_operand_collector
-gpgpu_operand_collector_num_units_sp                    4 # number of collector units (default = 4)
-gpgpu_operand_collector_num_units_dp                    0 # number of collector units (default = 0)
-gpgpu_operand_collector_num_units_sfu                    4 # number of collector units (default = 4)
-gpgpu_operand_collector_num_units_int                    0 # number of collector units (default = 0)
-gpgpu_operand_collector_num_units_tensor_core                    4 # number of collector units (default = 4)
-gpgpu_operand_collector_num_units_mem                    2 # number of collector units (default = 2)
-gpgpu_operand_collector_num_units_gen                    8 # number of collector units (default = 0)
-gpgpu_operand_collector_num_in_ports_sp                    1 # number of collector unit in ports (default = 1)
-gpgpu_operand_collector_num_in_ports_dp                    0 # number of collector unit in ports (default = 0)
-gpgpu_operand_collector_num_in_ports_sfu                    1 # number of collector unit in ports (default = 1)
-gpgpu_operand_collector_num_in_ports_int                    0 # number of collector unit in ports (default = 0)
-gpgpu_operand_collector_num_in_ports_tensor_core                    1 # number of collector unit in ports (default = 1)
-gpgpu_operand_collector_num_in_ports_mem                    1 # number of collector unit in ports (default = 1)
-gpgpu_operand_collector_num_in_ports_gen                    8 # number of collector unit in ports (default = 0)
-gpgpu_operand_collector_num_out_ports_sp                    1 # number of collector unit in ports (default = 1)
-gpgpu_operand_collector_num_out_ports_dp                    0 # number of collector unit in ports (default = 0)
-gpgpu_operand_collector_num_out_ports_sfu                    1 # number of collector unit in ports (default = 1)
-gpgpu_operand_collector_num_out_ports_int                    0 # number of collector unit in ports (default = 0)
-gpgpu_operand_collector_num_out_ports_tensor_core                    1 # number of collector unit in ports (default = 1)
-gpgpu_operand_collector_num_out_ports_mem                    1 # number of collector unit in ports (default = 1)
-gpgpu_operand_collector_num_out_ports_gen                    8 # number of collector unit in ports (default = 0)
-gpgpu_coalesce_arch                   86 # Coalescing arch (GT200 = 13, Fermi = 20)
-gpgpu_num_sched_per_core                    4 # Number of warp schedulers per core
-gpgpu_max_insn_issue_per_warp                    1 # Max number of instructions that can be issued per warp in one cycle by scheduler (either 1 or 2)
-gpgpu_dual_issue_diff_exec_units                    1 # should dual issue use two different execution unit resources (Default = 1)
-gpgpu_simt_core_sim_order                    1 # Select the simulation order of cores in a cluster (0=Fix, 1=Round-Robin)
-gpgpu_pipeline_widths 4,4,4,4,4,4,4,4,4,4,8,4,4 # Pipeline widths ID_OC_SP,ID_OC_DP,ID_OC_INT,ID_OC_SFU,ID_OC_MEM,OC_EX_SP,OC_EX_DP,OC_EX_INT,OC_EX_SFU,OC_EX_MEM,EX_WB,ID_OC_TENSOR_CORE,OC_EX_TENSOR_CORE
-gpgpu_tensor_core_avail                    1 # Tensor Core Available (default=0)
-gpgpu_num_sp_units                     4 # Number of SP units (default=1)
-gpgpu_num_dp_units                     4 # Number of DP units (default=0)
-gpgpu_num_int_units                    4 # Number of INT units (default=0)
-gpgpu_num_sfu_units                    4 # Number of SF units (default=1)
-gpgpu_num_tensor_core_units                    4 # Number of tensor_core units (default=1)
-gpgpu_num_mem_units                    1 # Number if ldst units (default=1) WARNING: not hooked up to anything
-gpgpu_scheduler                      lrr # Scheduler configuration: < lrr | gto | two_level_active > If two_level_active:<num_active_warps>:<inner_prioritization>:<outer_prioritization>For complete list of prioritization values see shader.h enum scheduler_prioritization_typeDefault: gto
-gpgpu_concurrent_kernel_sm                    0 # Support concurrent kernels on a SM (default = disabled)
-gpgpu_perfect_inst_const_cache                    1 # perfect inst and const cache mode, so all inst and const hits in the cache(default = disabled)
-gpgpu_inst_fetch_throughput                    4 # the number of fetched intruction per warp each cycle
-gpgpu_reg_file_port_throughput                    2 # the number ports of the register file
-specialized_unit_1         1,4,4,4,4,BRA # specialized unit config {<enabled>,<num_units>:<latency>:<initiation>,<ID_OC_SPEC>:<OC_EX_SPEC>,<NAME>}
-specialized_unit_2       1,4,200,4,4,TEX # specialized unit config {<enabled>,<num_units>:<latency>:<initiation>,<ID_OC_SPEC>:<OC_EX_SPEC>,<NAME>}
-specialized_unit_3     1,4,32,4,4,TENSOR # specialized unit config {<enabled>,<num_units>:<latency>:<initiation>,<ID_OC_SPEC>:<OC_EX_SPEC>,<NAME>}
-specialized_unit_4         1,4,4,4,4,UDP # specialized unit config {<enabled>,<num_units>:<latency>:<initiation>,<ID_OC_SPEC>:<OC_EX_SPEC>,<NAME>}
-specialized_unit_5         0,4,4,4,4,BRA # specialized unit config {<enabled>,<num_units>:<latency>:<initiation>,<ID_OC_SPEC>:<OC_EX_SPEC>,<NAME>}
-specialized_unit_6         0,4,4,4,4,BRA # specialized unit config {<enabled>,<num_units>:<latency>:<initiation>,<ID_OC_SPEC>:<OC_EX_SPEC>,<NAME>}
-specialized_unit_7         0,4,4,4,4,BRA # specialized unit config {<enabled>,<num_units>:<latency>:<initiation>,<ID_OC_SPEC>:<OC_EX_SPEC>,<NAME>}
-specialized_unit_8         0,4,4,4,4,BRA # specialized unit config {<enabled>,<num_units>:<latency>:<initiation>,<ID_OC_SPEC>:<OC_EX_SPEC>,<NAME>}
-gpgpu_perf_sim_memcpy                    1 # Fill the L2 cache on memcpy
-gpgpu_simple_dram_model                    0 # simple_dram_model with fixed latency and BW
-gpgpu_dram_scheduler                    1 # 0 = fifo, 1 = FR-FCFS (defaul)
-gpgpu_dram_partition_queues          64:64:64:64 # i2$:$2d:d2$:$2i
-l2_ideal                               0 # Use a ideal L2 cache that always hit
-gpgpu_cache:dl2     S:64:128:16,L:B:m:L:P,A:192:4,32:0,32 # unified banked L2 data cache config  {<sector?>:<nsets>:<bsize>:<assoc>,<rep>:<wr>:<alloc>:<wr_alloc>:<set_index_fn>,<mshr>:<N>:<merge>,<mq>:<fifo_entry>,<data_port_width>
-gpgpu_cache:dl2_texture_only                    0 # L2 cache used for texture only
-gpgpu_n_mem                            6 # number of memory modules (e.g. memory controllers) in gpu
-gpgpu_n_sub_partition_per_mchannel                    2 # number of memory subpartition in each memory module
-gpgpu_n_mem_per_ctrlr                    2 # number of memory chips per memory controller
-gpgpu_memlatency_stat                   14 # track and display latency statistics 0x2 enables MC, 0x4 enables queue logs
-gpgpu_frfcfs_dram_sched_queue_size                   64 # 0 = unlimited (default); # entries per chip
-gpgpu_dram_return_queue_size                  116 # 0 = unlimited (default); # entries per chip
-gpgpu_dram_buswidth                    4 # default = 4 bytes (8 bytes per cycle at DDR)
-gpgpu_dram_burst_length                    8 # Burst length of each DRAM request (default = 4 data bus cycle)
-dram_data_command_freq_ratio                    4 # Frequency ratio between DRAM data bus and command bus (default = 2 times, i.e. DDR)
-gpgpu_dram_timing_opt nbk=16:CCD=2:RRD=6:RCD=12:RAS=28:RP=12:RC=40: CL=12:WL=4:CDLR=5:WR=12:nbkgrp=4:CCDL=3:RTPL=2 # DRAM timing parameters = {nbk:tCCD:tRRD:tRCD:tRAS:tRP:tRC:CL:WL:tCDLR:tWR:nbkgrp:tCCDL:tRTPL}
-gpgpu_l2_rop_latency                  120 # ROP queue latency (default 85)
-dram_latency                         100 # DRAM latency (default 30)
-dram_dual_bus_interface                    0 # dual_bus_interface (default = 0) 
-dram_bnk_indexing_policy                    0 # dram_bnk_indexing_policy (0 = normal indexing, 1 = Xoring with the higher bits) (Default = 0)
-dram_bnkgrp_indexing_policy                    1 # dram_bnkgrp_indexing_policy (0 = take higher bits, 1 = take lower bits) (Default = 0)
-dram_seperate_write_queue_enable                    0 # Seperate_Write_Queue_Enable
-dram_write_queue_size             32:28:16 # Write_Queue_Size
-dram_elimnate_rw_turnaround                    0 # elimnate_rw_turnaround i.e set tWTR and tRTW = 0
-icnt_flit_size                        40 # icnt_flit_size
-SST_mode                               0 # SST mode
-gpgpu_mem_addr_mapping dramid@8;00000000.00000000.00000000.00000000.0000RRRR.RRRRRRRR.BBBCCCCB.CCSSSSSS # mapping memory address to dram model {dramid@<start bit>;<memory address map>}
-gpgpu_mem_addr_test                    0 # run sweep test to check address mapping for aliased address
-gpgpu_mem_address_mask                    1 # 0 = old addressing mask, 1 = new addressing mask, 2 = new add. mask + flipped bank sel and chip sel bits
-gpgpu_memory_partition_indexing                    2 # 0 = no indexing, 1 = bitwise xoring, 2 = IPoly, 3 = custom indexing
-accelwattch_xml_file accelwattch_sass_sim.xml # AccelWattch XML file
-power_simulation_enabled                    0 # Turn on power simulator (1=On, 0=Off)
-power_per_cycle_dump                    0 # Dump detailed power output each cycle
-hw_perf_file_name            hw_perf.csv # Hardware Performance Statistics file
-hw_perf_bench_name                       # Kernel Name in Hardware Performance Statistics file
-power_simulation_mode                    0 # Switch performance counter input for power simulation (0=Sim, 1=HW, 2=HW-Sim Hybrid)
-dvfs_enabled                           0 # Turn on DVFS for power model
-aggregate_power_stats                    0 # Accumulate power across all kernels
-accelwattch_hybrid_perfsim_L1_RH                    0 # Get L1 Read Hits for Accelwattch-Hybrid from Accel-Sim
-accelwattch_hybrid_perfsim_L1_RM                    0 # Get L1 Read Misses for Accelwattch-Hybrid from Accel-Sim
-accelwattch_hybrid_perfsim_L1_WH                    0 # Get L1 Write Hits for Accelwattch-Hybrid from Accel-Sim
-accelwattch_hybrid_perfsim_L1_WM                    0 # Get L1 Write Misses for Accelwattch-Hybrid from Accel-Sim
-accelwattch_hybrid_perfsim_L2_RH                    0 # Get L2 Read Hits for Accelwattch-Hybrid from Accel-Sim
-accelwattch_hybrid_perfsim_L2_RM                    0 # Get L2 Read Misses for Accelwattch-Hybrid from Accel-Sim
-accelwattch_hybrid_perfsim_L2_WH                    0 # Get L2 Write Hits for Accelwattch-Hybrid from Accel-Sim
-accelwattch_hybrid_perfsim_L2_WM                    0 # Get L2 Write Misses for Accelwattch-Hybrid from Accel-Sim
-accelwattch_hybrid_perfsim_CC_ACC                    0 # Get Constant Cache Acesses for Accelwattch-Hybrid from Accel-Sim
-accelwattch_hybrid_perfsim_SHARED_ACC                    0 # Get Shared Memory Acesses for Accelwattch-Hybrid from Accel-Sim
-accelwattch_hybrid_perfsim_DRAM_RD                    0 # Get DRAM Reads for Accelwattch-Hybrid from Accel-Sim
-accelwattch_hybrid_perfsim_DRAM_WR                    0 # Get DRAM Writes for Accelwattch-Hybrid from Accel-Sim
-accelwattch_hybrid_perfsim_NOC                    0 # Get Interconnect Acesses for Accelwattch-Hybrid from Accel-Sim
-accelwattch_hybrid_perfsim_PIPE_DUTY                    0 # Get Pipeline Duty Cycle Acesses for Accelwattch-Hybrid from Accel-Sim
-accelwattch_hybrid_perfsim_NUM_SM_IDLE                    0 # Get Number of Idle SMs for Accelwattch-Hybrid from Accel-Sim
-accelwattch_hybrid_perfsim_CYCLES                    0 # Get Executed Cycles for Accelwattch-Hybrid from Accel-Sim
-accelwattch_hybrid_perfsim_VOLTAGE                    0 # Get Chip Voltage for Accelwattch-Hybrid from Accel-Sim
-power_trace_enabled                    0 # produce a file for the power trace (1=On, 0=Off)
-power_trace_zlevel                     6 # Compression level of the power trace output log (0=no comp, 9=highest)
-steady_power_levels_enabled                    0 # produce a file for the steady power levels (1=On, 0=Off)
-steady_state_definition                  8:4 # allowed deviation:number of samples
-gpgpu_max_cycle                        0 # terminates gpu simulation early (0 = no limit)
-gpgpu_max_insn                 100000000 # terminates gpu simulation early (0 = no limit)
-gpgpu_max_cta                          0 # terminates gpu simulation early (0 = no limit)
-gpgpu_max_completed_cta                    0 # terminates gpu simulation early (0 = no limit)
-gpgpu_runtime_stat                   500 # display runtime statistics such as dram utilization {<freq>:<flag>}
-liveness_message_freq                    1 # Minimum number of seconds between simulation liveness messages (0 = always print)
-gpgpu_compute_capability_major                    8 # Major compute capability version number
-gpgpu_compute_capability_minor                    6 # Minor compute capability version number
-gpgpu_flush_l1_cache                    1 # Flush L1 cache at the end of each kernel call
-gpgpu_flush_l2_cache                    0 # Flush L2 cache at the end of each kernel call
-gpgpu_deadlock_detect                    1 # Stop the simulation at deadlock (1=on (default), 0=off)
-gpgpu_ptx_instruction_classification                    0 # if enabled will classify ptx instruction types per kernel (Max 255 kernels now)
-gpgpu_ptx_sim_mode                     0 # Select between Performance (default) or Functional simulation (1)
-gpgpu_clock_domains 1132:1132:1132:3500.5 # Clock Domain Frequencies in MhZ {<Core Clock>:<ICNT Clock>:<L2 Clock>:<DRAM Clock>}
-gpgpu_max_concurrent_kernel                  128 # maximum kernels that can run concurrently on GPU, set this value according to max resident grids for your compute capability
-gpgpu_cflog_interval                    0 # Interval between each snapshot in control flow logger
-visualizer_enabled                     0 # Turn on visualizer output (1=On, 0=Off)
-visualizer_outputfile                 NULL # Specifies the output log file for visualizer
-visualizer_zlevel                      6 # Compression level of the visualizer output log (0=no comp, 9=highest)
-gpgpu_stack_size_limit                 1024 # GPU thread stack size
-gpgpu_heap_size_limit              8388608 # GPU malloc heap size 
-gpgpu_runtime_sync_depth_limit                    2 # GPU device runtime synchronize depth
-gpgpu_runtime_pending_launch_count_limit                 2048 # GPU device runtime pending launch count
-trace_enabled                          0 # Turn on traces
-trace_components                    none # comma seperated list of traces to enable. Complete list found in trace_streams.tup. Default none
-trace_sampling_core                    0 # The core which is printed using CORE_DPRINTF. Default 0
-trace_sampling_memory_partition                   -1 # The memory partition which is printed using MEMPART_DPRINTF. Default -1 (i.e. all)
-enable_ptx_file_line_stats                    1 # Turn on PTX source line statistic profiling. (1 = On)
-ptx_line_stats_filename gpgpu_inst_stats.txt # Output file for PTX source line statistics.
-gpgpu_kernel_launch_latency                 5000 # Kernel launch latency in cycles. Default: 0
-gpgpu_cdp_enabled                      0 # Turn on CDP
-gpgpu_TB_launch_latency                    0 # thread block launch latency in cycles. Default: 0
-trace               ./util/tracer_nvbit/BFS_traces/kernelslist.g # traces kernel filetraces kernel file directory
-trace_opcode_latency_initiation_int                  2,2 # Opcode latencies and initiation for integers in trace driven mode <latency,initiation>
-trace_opcode_latency_initiation_sp                  2,1 # Opcode latencies and initiation for sp in trace driven mode <latency,initiation>
-trace_opcode_latency_initiation_dp                64,64 # Opcode latencies and initiation for dp in trace driven mode <latency,initiation>
-trace_opcode_latency_initiation_sfu                 21,8 # Opcode latencies and initiation for sfu in trace driven mode <latency,initiation>
-trace_opcode_latency_initiation_tensor                32,32 # Opcode latencies and initiation for tensor in trace driven mode <latency,initiation>
-trace_opcode_latency_initiation_spec_op_1                  4,4 # specialized unit config <latency,initiation>
-trace_opcode_latency_initiation_spec_op_2                200,4 # specialized unit config <latency,initiation>
-trace_opcode_latency_initiation_spec_op_3                32,32 # specialized unit config <latency,initiation>
-trace_opcode_latency_initiation_spec_op_4                  4,1 # specialized unit config <latency,initiation>
-trace_opcode_latency_initiation_spec_op_5                  4,4 # specialized unit config <latency,initiation>
-trace_opcode_latency_initiation_spec_op_6                  4,4 # specialized unit config <latency,initiation>
-trace_opcode_latency_initiation_spec_op_7                  4,4 # specialized unit config <latency,initiation>
-trace_opcode_latency_initiation_spec_op_8                  4,4 # specialized unit config <latency,initiation>
DRAM Timing Options:
nbk                                    16 # number of banks
CCD                                     2 # column to column delay
RRD                                     6 # minimal delay between activation of rows in different banks
RCD                                    12 # row to column delay
RAS                                    28 # time needed to activate row
RP                                     12 # time needed to precharge (deactivate) row
RC                                     40 # row cycle time
CDLR                                    5 # switching from write to read (changes tWTR)
WR                                     12 # last data-in to row precharge
CL                                     12 # CAS latency
WL                                      4 # Write latency
nbkgrp                                  4 # number of bank groups
CCDL                                    3 # column to column delay between accesses to different bank groups
RTPL                                    2 # read to precharge delay between accesses to different bank groups
Total number of memory sub partition = 12
addr_dec_mask[CHIP]  = 0000000000000000 	high:64 low:0
addr_dec_mask[BK]    = 000000000000e100 	high:16 low:8
addr_dec_mask[ROW]   = 000000000fff0000 	high:28 low:16
addr_dec_mask[COL]   = 0000000000001eff 	high:13 low:0
addr_dec_mask[BURST] = 000000000000003f 	high:6 low:0
sub_partition_id_mask = 0000000000000100
GPGPU-Sim uArch: clock freqs: 1132000000.000000:1132000000.000000:1132000000.000000:3500500000.000000
GPGPU-Sim uArch: clock periods: 0.00000000088339222615:0.00000000088339222615:0.00000000088339222615:0.00000000028567347522
*** Initializing Memory Statistics ***
GPGPU-Sim uArch: performance model initialization complete.
launching memcpy command : MemcpyHtoD,0x00007edd61400000,524288
launching memcpy command : MemcpyHtoD,0x00007edd61480000,1572864
launching memcpy command : MemcpyHtoD,0x00007edd61600000,65536
launching memcpy command : MemcpyHtoD,0x00007edd61610000,65536
launching memcpy command : MemcpyHtoD,0x00007edd61620000,262144
launching memcpy command : MemcpyHtoD,0x00007edd61660000,1
Processing kernel ./util/tracer_nvbit/BFS_traces/kernel-1-ctx_0x38a97040.traceg.xz
-kernel name = _Z6KernelP4NodePiPbS2_S1_S2_i
-kernel id = 1
-grid dim = (256,1,1)
-block dim = (256,1,1)
-shmem = 0
-nregs = 23
-binary version = 86
-cuda stream id = 0
-shmem base_addr = 0x00007edd79000000
-local mem base_addr = 0x00007edd77000000
-nvbit version = 1.7.6
-accelsim tracer version = 5
-enable lineinfo = 0
Header info loaded for kernel command : ./util/tracer_nvbit/BFS_traces/kernel-1-ctx_0x38a97040.traceg.xz
launching kernel name: _Z6KernelP4NodePiPbS2_S1_S2_i uid: 1 cuda_stream_id: 0
GPGPU-Sim uArch: Shader 0 bind to kernel 1 '_Z6KernelP4NodePiPbS2_S1_S2_i'
GPGPU-Sim uArch: CTA/core = 6, limited by: threads
thread block = 0,0,0
GPGPU-Sim uArch: Shader 1 bind to kernel 1 '_Z6KernelP4NodePiPbS2_S1_S2_i'
thread block = 1,0,0
GPGPU-Sim uArch: Shader 2 bind to kernel 1 '_Z6KernelP4NodePiPbS2_S1_S2_i'
thread block = 2,0,0
GPGPU-Sim uArch: Shader 3 bind to kernel 1 '_Z6KernelP4NodePiPbS2_S1_S2_i'
thread block = 3,0,0
GPGPU-Sim uArch: Shader 4 bind to kernel 1 '_Z6KernelP4NodePiPbS2_S1_S2_i'
thread block = 4,0,0
GPGPU-Sim uArch: Shader 5 bind to kernel 1 '_Z6KernelP4NodePiPbS2_S1_S2_i'
thread block = 5,0,0
GPGPU-Sim uArch: Shader 6 bind to kernel 1 '_Z6KernelP4NodePiPbS2_S1_S2_i'
thread block = 6,0,0
GPGPU-Sim uArch: Shader 7 bind to kernel 1 '_Z6KernelP4NodePiPbS2_S1_S2_i'
thread block = 7,0,0
GPGPU-Sim uArch: Shader 8 bind to kernel 1 '_Z6KernelP4NodePiPbS2_S1_S2_i'
thread block = 8,0,0
GPGPU-Sim uArch: Shader 9 bind to kernel 1 '_Z6KernelP4NodePiPbS2_S1_S2_i'
thread block = 9,0,0
GPGPU-Sim uArch: Shader 10 bind to kernel 1 '_Z6KernelP4NodePiPbS2_S1_S2_i'
thread block = 10,0,0
GPGPU-Sim uArch: Shader 11 bind to kernel 1 '_Z6KernelP4NodePiPbS2_S1_S2_i'
thread block = 11,0,0
GPGPU-Sim uArch: Shader 12 bind to kernel 1 '_Z6KernelP4NodePiPbS2_S1_S2_i'
thread block = 12,0,0
GPGPU-Sim uArch: Shader 13 bind to kernel 1 '_Z6KernelP4NodePiPbS2_S1_S2_i'
thread block = 13,0,0
GPGPU-Sim uArch: Shader 14 bind to kernel 1 '_Z6KernelP4NodePiPbS2_S1_S2_i'
thread block = 14,0,0
thread block = 15,0,0
thread block = 16,0,0
thread block = 17,0,0
thread block = 18,0,0
thread block = 19,0,0
thread block = 20,0,0
thread block = 21,0,0
thread block = 22,0,0
thread block = 23,0,0
thread block = 24,0,0
thread block = 25,0,0
thread block = 26,0,0
thread block = 27,0,0
thread block = 28,0,0
thread block = 29,0,0
thread block = 30,0,0
thread block = 31,0,0
thread block = 32,0,0
thread block = 33,0,0
thread block = 34,0,0
thread block = 35,0,0
thread block = 36,0,0
thread block = 37,0,0
thread block = 38,0,0
thread block = 39,0,0
thread block = 40,0,0
thread block = 41,0,0
thread block = 42,0,0
thread block = 43,0,0
thread block = 44,0,0
thread block = 45,0,0
thread block = 46,0,0
thread block = 47,0,0
thread block = 48,0,0
thread block = 49,0,0
thread block = 50,0,0
thread block = 51,0,0
thread block = 52,0,0
thread block = 53,0,0
thread block = 54,0,0
thread block = 55,0,0
thread block = 56,0,0
thread block = 57,0,0
thread block = 58,0,0
thread block = 59,0,0
thread block = 60,0,0
thread block = 61,0,0
thread block = 62,0,0
thread block = 63,0,0
thread block = 64,0,0
thread block = 65,0,0
thread block = 66,0,0
thread block = 67,0,0
thread block = 68,0,0
thread block = 69,0,0
thread block = 70,0,0
thread block = 71,0,0
thread block = 72,0,0
thread block = 73,0,0
thread block = 74,0,0
thread block = 75,0,0
thread block = 76,0,0
thread block = 77,0,0
thread block = 78,0,0
thread block = 79,0,0
thread block = 80,0,0
thread block = 81,0,0
thread block = 82,0,0
thread block = 83,0,0
thread block = 84,0,0
thread block = 85,0,0
thread block = 86,0,0
thread block = 87,0,0
thread block = 88,0,0
thread block = 89,0,0
thread block = 90,0,0
thread block = 91,0,0
thread block = 92,0,0
thread block = 93,0,0
thread block = 94,0,0
thread block = 95,0,0
thread block = 96,0,0
thread block = 97,0,0
thread block = 98,0,0
thread block = 99,0,0
thread block = 100,0,0
thread block = 101,0,0
thread block = 102,0,0
thread block = 103,0,0
thread block = 104,0,0
thread block = 105,0,0
thread block = 106,0,0
thread block = 107,0,0
thread block = 108,0,0
thread block = 109,0,0
thread block = 110,0,0
thread block = 111,0,0
thread block = 112,0,0
thread block = 113,0,0
thread block = 114,0,0
thread block = 115,0,0
thread block = 116,0,0
thread block = 117,0,0
thread block = 118,0,0
thread block = 119,0,0
thread block = 120,0,0
thread block = 121,0,0
thread block = 122,0,0
thread block = 123,0,0
thread block = 124,0,0
thread block = 125,0,0
thread block = 126,0,0
thread block = 127,0,0
thread block = 128,0,0
thread block = 129,0,0
thread block = 130,0,0
thread block = 131,0,0
thread block = 132,0,0
thread block = 133,0,0
thread block = 134,0,0
thread block = 135,0,0
thread block = 136,0,0
thread block = 137,0,0
thread block = 138,0,0
thread block = 139,0,0
thread block = 140,0,0
thread block = 141,0,0
thread block = 142,0,0
thread block = 143,0,0
thread block = 144,0,0
thread block = 145,0,0
thread block = 146,0,0
thread block = 147,0,0
thread block = 148,0,0
thread block = 149,0,0
thread block = 150,0,0
thread block = 151,0,0
thread block = 152,0,0
thread block = 153,0,0
thread block = 154,0,0
thread block = 155,0,0
thread block = 156,0,0
thread block = 157,0,0
thread block = 158,0,0
thread block = 159,0,0
thread block = 160,0,0
thread block = 161,0,0
thread block = 162,0,0
thread block = 163,0,0
thread block = 164,0,0
thread block = 165,0,0
thread block = 166,0,0
thread block = 167,0,0
thread block = 168,0,0
thread block = 169,0,0
thread block = 170,0,0
thread block = 171,0,0
thread block = 172,0,0
thread block = 173,0,0
thread block = 174,0,0
thread block = 175,0,0
thread block = 176,0,0
thread block = 177,0,0
thread block = 178,0,0
thread block = 179,0,0
thread block = 180,0,0
thread block = 181,0,0
thread block = 182,0,0
thread block = 183,0,0
thread block = 184,0,0
thread block = 185,0,0
thread block = 186,0,0
thread block = 187,0,0
thread block = 188,0,0
thread block = 189,0,0
thread block = 190,0,0
thread block = 191,0,0
thread block = 192,0,0
thread block = 193,0,0
thread block = 194,0,0
thread block = 195,0,0
thread block = 196,0,0
thread block = 197,0,0
thread block = 198,0,0
thread block = 199,0,0
thread block = 200,0,0
thread block = 201,0,0
thread block = 202,0,0
thread block = 203,0,0
thread block = 204,0,0
thread block = 205,0,0
thread block = 206,0,0
thread block = 207,0,0
thread block = 208,0,0
thread block = 209,0,0
thread block = 210,0,0
thread block = 211,0,0
thread block = 212,0,0
thread block = 213,0,0
thread block = 214,0,0
thread block = 215,0,0
thread block = 216,0,0
thread block = 217,0,0
thread block = 218,0,0
thread block = 219,0,0
thread block = 220,0,0
thread block = 221,0,0
thread block = 222,0,0
thread block = 223,0,0
thread block = 224,0,0
thread block = 225,0,0
thread block = 226,0,0
thread block = 227,0,0
thread block = 228,0,0
thread block = 229,0,0
thread block = 230,0,0
thread block = 231,0,0
thread block = 232,0,0
thread block = 233,0,0
thread block = 234,0,0
thread block = 235,0,0
thread block = 236,0,0
thread block = 237,0,0
thread block = 238,0,0
thread block = 239,0,0
thread block = 240,0,0
thread block = 241,0,0
thread block = 242,0,0
thread block = 243,0,0
thread block = 244,0,0
thread block = 245,0,0
thread block = 246,0,0
thread block = 247,0,0
thread block = 248,0,0
thread block = 249,0,0
thread block = 250,0,0
thread block = 251,0,0
thread block = 252,0,0
thread block = 253,0,0
thread block = 254,0,0
thread block = 255,0,0
Destroy streams for kernel 1: size 0
kernel_name = _Z6KernelP4NodePiPbS2_S1_S2_i 
kernel_launch_uid = 1 
kernel_stream_id = 0
gpu_sim_cycle = 11676
gpu_sim_insn = 786680
gpu_ipc =      67.3758
gpu_tot_sim_cycle = 11676
gpu_tot_sim_insn = 786680
gpu_tot_ipc =      67.3758
gpu_tot_issued_cta = 256
gpu_occupancy = 68.4345% 
gpu_tot_occupancy = 68.4345% 
max_total_param_size = 0
gpu_stall_dramfull = 0
gpu_stall_icnt2sh    = 0
partiton_level_parallism =       0.1812
partiton_level_parallism_total  =       0.1812
partiton_level_parallism_util =       2.9761
partiton_level_parallism_util_total  =       2.9761
L2_BW  =       6.5647 GB/Sec
L2_BW_total  =       6.5647 GB/Sec
gpu_total_sim_rate=786680

========= Core cache stats =========
L1I_cache:
	L1I_total_cache_accesses = 0
	L1I_total_cache_misses = 0
	L1I_total_cache_pending_hits = 0
	L1I_total_cache_reservation_fails = 0
L1D_cache:
	L1D_cache_core[0]: Access = 0, Miss = 0, Miss_rate = -nan, Pending_hits = 0, Reservation_fails = 0
	L1D_cache_core[1]: Access = 0, Miss = 0, Miss_rate = -nan, Pending_hits = 0, Reservation_fails = 0
	L1D_cache_core[2]: Access = 0, Miss = 0, Miss_rate = -nan, Pending_hits = 0, Reservation_fails = 0
	L1D_cache_core[3]: Access = 0, Miss = 0, Miss_rate = -nan, Pending_hits = 0, Reservation_fails = 0
	L1D_cache_core[4]: Access = 0, Miss = 0, Miss_rate = -nan, Pending_hits = 0, Reservation_fails = 0
	L1D_cache_core[5]: Access = 0, Miss = 0, Miss_rate = -nan, Pending_hits = 0, Reservation_fails = 0
	L1D_cache_core[6]: Access = 0, Miss = 0, Miss_rate = -nan, Pending_hits = 0, Reservation_fails = 0
	L1D_cache_core[7]: Access = 0, Miss = 0, Miss_rate = -nan, Pending_hits = 0, Reservation_fails = 0
	L1D_cache_core[8]: Access = 0, Miss = 0, Miss_rate = -nan, Pending_hits = 0, Reservation_fails = 0
	L1D_cache_core[9]: Access = 0, Miss = 0, Miss_rate = -nan, Pending_hits = 0, Reservation_fails = 0
	L1D_cache_core[10]: Access = 0, Miss = 0, Miss_rate = -nan, Pending_hits = 0, Reservation_fails = 0
	L1D_cache_core[11]: Access = 0, Miss = 0, Miss_rate = -nan, Pending_hits = 0, Reservation_fails = 0
	L1D_cache_core[12]: Access = 0, Miss = 0, Miss_rate = -nan, Pending_hits = 0, Reservation_fails = 0
	L1D_cache_core[13]: Access = 0, Miss = 0, Miss_rate = -nan, Pending_hits = 0, Reservation_fails = 0
	L1D_cache_core[14]: Access = 0, Miss = 0, Miss_rate = -nan, Pending_hits = 0, Reservation_fails = 0
	L1D_total_cache_accesses = 0
	L1D_total_cache_misses = 0
	L1D_total_cache_pending_hits = 0
	L1D_total_cache_reservation_fails = 0
	L1D_cache_data_port_util = 0.000
	L1D_cache_fill_port_util = 0.000
L1C_cache:
	L1C_total_cache_accesses = 0
	L1C_total_cache_misses = 0
	L1C_total_cache_pending_hits = 0
	L1C_total_cache_reservation_fails = 0
L1T_cache:
	L1T_total_cache_accesses = 0
	L1T_total_cache_misses = 0
	L1T_total_cache_pending_hits = 0
	L1T_total_cache_reservation_fails = 0

Total_core_cache_stats:

Total_core_cache_fail_stats:
ctas_completed 256, Shader 0 warp_id issue ditsribution:
warp_id:
0, 1, 2, 3, 4, 5, 6, 7, 8, 9, 10, 11, 12, 13, 14, 15, 16, 17, 18, 19, 20, 21, 22, 23, 24, 25, 26, 27, 28, 29, 30, 31, 32, 33, 34, 35, 36, 37, 38, 39, 40, 41, 42, 43, 44, 45, 46, 47, 
distro:
264, 13, 13, 13, 13, 13, 13, 13, 39, 39, 39, 39, 39, 39, 39, 39, 39, 39, 39, 39, 39, 39, 39, 39, 39, 39, 39, 39, 39, 39, 39, 39, 39, 39, 39, 39, 39, 39, 39, 39, 39, 39, 39, 39, 39, 39, 39, 39, 
gpgpu_n_tot_thrd_icount = 860000
gpgpu_n_tot_w_icount = 26875
gpgpu_n_stall_shd_mem = 0
gpgpu_n_mem_read_local = 0
gpgpu_n_mem_write_local = 0
gpgpu_n_mem_read_global = 2090
gpgpu_n_mem_write_global = 26
gpgpu_n_mem_texture = 0
gpgpu_n_mem_const = 0
gpgpu_n_load_insn  = 65578
gpgpu_n_store_insn = 26
gpgpu_n_shmem_insn = 0
gpgpu_n_sstarr_insn = 0
gpgpu_n_tex_insn = 0
gpgpu_n_const_mem_insn = 0
gpgpu_n_param_mem_insn = 0
gpgpu_n_shmem_bkconflict = 0
gpgpu_n_l1cache_bkconflict = 0
gpgpu_n_intrawarp_mshr_merge = 0
gpgpu_n_cmem_portconflict = 0
gpgpu_stall_shd_mem[c_mem][resource_stall] = 0
gpgpu_stall_shd_mem[s_mem][bk_conf] = 0
gpgpu_stall_shd_mem[gl_mem][resource_stall] = 0
gpgpu_stall_shd_mem[gl_mem][coal_stall] = 0
gpgpu_stall_shd_mem[gl_mem][data_port_stall] = 0
gpu_reg_bank_conflict_stalls = 0
Warp Occupancy Distribution:
Stall:14787	W0_Idle:16871	W0_Scoreboard:45325	W1:249	W2:0	W3:0	W4:0	W5:0	W6:0	W7:0	W8:0	W9:0	W10:0	W11:0	W12:0	W13:0	W14:0	W15:0	W16:0	W17:0	W18:0	W19:0	W20:0	W21:0	W22:0	W23:0	W24:0	W25:0	W26:0	W27:0	W28:0	W29:0	W30:0	W31:1	W32:24575
single_issue_nums: WS0:6907	WS1:6656	WS2:6656	WS3:6656	
dual_issue_nums: WS0:0	WS1:0	WS2:0	WS3:0	
traffic_breakdown_coretomem[GLOBAL_ACC_R] = 16720 {8:2090,}
traffic_breakdown_coretomem[GLOBAL_ACC_W] = 1040 {40:26,}
traffic_breakdown_memtocore[GLOBAL_ACC_R] = 83600 {40:2090,}
traffic_breakdown_memtocore[GLOBAL_ACC_W] = 208 {8:26,}
maxmflatency = 330 
max_icnt2mem_latency = 90 
maxmrqlatency = 22 
max_icnt2sh_latency = 9 
averagemflatency = 243 
avg_icnt2mem_latency = 12 
avg_mrq_latency = 0 
avg_icnt2sh_latency = 2 
mrq_lat_table:1733 	146 	102 	63 	15 	0 	0 	0 	0 	0 	0 	0 	0 	0 	0 	0 	0 	0 	0 	0 	0 	0 	0 	0 	0 	0 	0 	0 	0 	0 	0 	0 	
dq_lat_table:0 	0 	0 	0 	0 	0 	0 	0 	0 	0 	0 	0 	0 	0 	0 	0 	0 	0 	0 	0 	0 	0 	0 	0 	0 	0 	0 	0 	0 	0 	0 	0 	
mf_lat_table:0 	0 	0 	0 	0 	0 	57 	1673 	386 	0 	0 	0 	0 	0 	0 	0 	0 	0 	0 	0 	0 	0 	0 	0 	0 	0 	0 	0 	0 	0 	0 	0 	
icnt2mem_lat_table:0 	1023 	339 	288 	165 	220 	81 	0 	0 	0 	0 	0 	0 	0 	0 	0 	0 	0 	0 	0 	0 	0 	0 	0 	
icnt2sh_lat_table:0 	1833 	266 	17 	0 	0 	0 	0 	0 	0 	0 	0 	0 	0 	0 	0 	0 	0 	0 	0 	0 	0 	0 	0 	
mf_lat_pw_table:0 	0 	0 	0 	0 	0 	2 	11 	0 	0 	0 	0 	0 	0 	0 	0 	0 	0 	0 	0 	0 	0 	0 	0 	0 	0 	0 	0 	0 	0 	0 	0 	
maximum concurrent accesses to same row:
dram[0]:         0         0         0         0         0         0         0         0         0         0         0         0         0         0         0         0 
dram[1]:         0         0         0         0         0         0         0         0         0         0         0         0         0         0         0         0 
dram[2]:         0         0         0         0         0         0         0         0         0         0         0         0         0         0         0         0 
dram[3]:         0         0         0         0         0         0         0         0         0         0         0         0         0         0         0         0 
dram[4]:        96         0         0         0         0         0         0         0         0         0         0         0         0         0         0         0 
dram[5]:         0         0         0         0         0         0         0         0         0         0         0         0         0         0         0         0 
maximum service time to same row:
dram[0]:      5392      5393      6126      6170      7326         0         0         0         0         0      5880         0         0         0         0         0 
dram[1]:      5393      5392      6147      6176      9349         0         0         0         0         0         0         0         0         0         0         0 
dram[2]:      5392      5393      6248      6245         0         0         0         0         0         0         0         0         0         0         0         0 
dram[3]:      5392      5393      6224      6254         0         0         0         0         0         0         0         0         0         0         0         0 
dram[4]:      5392      5393      6129      6146         0         0         0         0         0         0         0         0         0         0         0         0 
dram[5]:      5392      5393      6139      6157         0      6782         0         0         0         0         0         0         0         0         0         0 
average row accesses per activate:
dram[0]: 192.000000 192.000000 64.000000 56.000000  2.000000      -nan      -nan      -nan      -nan      -nan  1.000000      -nan      -nan      -nan      -nan      -nan 
dram[1]: 192.000000 192.000000 64.000000 57.000000  2.000000      -nan      -nan      -nan      -nan      -nan      -nan      -nan      -nan      -nan      -nan      -nan 
dram[2]: 96.000000 96.000000 41.000000 32.000000      -nan      -nan      -nan      -nan      -nan      -nan      -nan      -nan      -nan      -nan      -nan      -nan 
dram[3]: 96.000000 96.000000 41.000000 32.000000      -nan      -nan      -nan      -nan      -nan      -nan      -nan      -nan      -nan      -nan      -nan      -nan 
dram[4]: 48.500000 96.000000 32.000000 33.000000      -nan      -nan      -nan      -nan      -nan      -nan      -nan      -nan      -nan      -nan      -nan      -nan 
dram[5]: 96.000000 96.000000 32.000000 32.000000      -nan  1.000000      -nan      -nan      -nan      -nan      -nan      -nan      -nan      -nan      -nan      -nan 
average row locality = 2059/29 = 71.000000
number of total memory accesses made:
dram[0]:         0         0         0         0         0         0         0         0         0         0         0         0         0         0         0         0 
dram[1]:         0         0         0         0         0         0         0         0         0         0         0         0         0         0         0         0 
dram[2]:         0         0         0         0         0         0         0         0         0         0         0         0         0         0         0         0 
dram[3]:         0         0         0         0         0         0         0         0         0         0         0         0         0         0         0         0 
dram[4]:         0         0         0         0         0         0         0         0         0         0         0         0         0         0         0         0 
dram[5]:         0         0         0         0         0         0         0         0         0         0         0         0         0         0         0         0 
total accesses: 0
min_bank_accesses = 0!
min_chip_accesses = 0!
number of total read accesses:
dram[0]:         0         0         0         0         0         0         0         0         0         0         0         0         0         0         0         0 
dram[1]:         0         0         0         0         0         0         0         0         0         0         0         0         0         0         0         0 
dram[2]:         0         0         0         0         0         0         0         0         0         0         0         0         0         0         0         0 
dram[3]:         0         0         0         0         0         0         0         0         0         0         0         0         0         0         0         0 
dram[4]:         0         0         0         0         0         0         0         0         0         0         0         0         0         0         0         0 
dram[5]:         0         0         0         0         0         0         0         0         0         0         0         0         0         0         0         0 
total dram reads = 0
min_bank_accesses = 0!
min_chip_accesses = 0!
number of total write accesses:
dram[0]:         0         0         0         0         0         0         0         0         0         0         0         0         0         0         0         0 
dram[1]:         0         0         0         0         0         0         0         0         0         0         0         0         0         0         0         0 
dram[2]:         0         0         0         0         0         0         0         0         0         0         0         0         0         0         0         0 
dram[3]:         0         0         0         0         0         0         0         0         0         0         0         0         0         0         0         0 
dram[4]:         0         0         0         0         0         0         0         0         0         0         0         0         0         0         0         0 
dram[5]:         0         0         0         0         0         0         0         0         0         0         0         0         0         0         0         0 
total dram writes = 0
min_bank_accesses = 0!
min_chip_accesses = 0!
average mf latency per bank:
dram[0]:     none      none      none      none      none      none      none      none      none      none      none      none      none      none      none      none  
dram[1]:     none      none      none      none      none      none      none      none      none      none      none      none      none      none      none      none  
dram[2]:     none      none      none      none      none      none      none      none      none      none      none      none      none      none      none      none  
dram[3]:     none      none      none      none      none      none      none      none      none      none      none      none      none      none      none      none  
dram[4]:     none      none      none      none      none      none      none      none      none      none      none      none      none      none      none      none  
dram[5]:     none      none      none      none      none      none      none      none      none      none      none      none      none      none      none      none  
maximum mf latency per bank:
dram[0]:        330       325       239       238       237         0         0         0         0         0       238         0         0         0       126         0
dram[1]:        324       330       245       241       237         0         0         0       126         0         0         0         0         0         0         0
dram[2]:        299       314       242       242         0         0         0         0         0         0         0         0         0         0         0         0
dram[3]:        294       310       243       238         0         0         0         0         0       126         0       126         0         0         0         0
dram[4]:        304       314       243       241         0         0       126       126         0         0         0         0         0         0         0         0
dram[5]:        294       310       237       237         0       237         0         0         0         0       126         0         0         0         0       126
Memory Partition 0: 
Cache L2_bank_000:
MSHR contents

Cache L2_bank_001:
MSHR contents

In Dram Latency Queue (total = 0): 
DRAM[0]: 16 bks, busW=4 BL=8 CL=12, tRRD=6 tCCD=2, tRCD=12 tRAS=28 tRP=12 tRC=40
n_cmd=36103 n_nop=35590 n_act=6 n_pre=0 n_ref_event=0 n_req=507 n_rd=507 n_rd_L2_A=0 n_write=0 n_wr_bk=0 bw_util=0.02809
n_activity=1857 dram_eff=0.546
bk0: 192a 35889i bk1: 192a 35801i bk2: 64a 36059i bk3: 56a 36066i bk4: 2a 36090i bk5: 0a 36101i bk6: 0a 36102i bk7: 0a 36102i bk8: 0a 36102i bk9: 0a 36103i bk10: 1a 36090i bk11: 0a 36102i bk12: 0a 36102i bk13: 0a 36104i bk14: 0a 36104i bk15: 0a 36104i 

------------------------------------------------------------------------

Row_Buffer_Locality = 0.988166
Row_Buffer_Locality_read = 0.988166
Row_Buffer_Locality_write = -nan
Bank_Level_Parallism = 1.246968
Bank_Level_Parallism_Col = 1.242525
Bank_Level_Parallism_Ready = 1.023622
write_to_read_ratio_blp_rw_average = 0.000000
GrpLevelPara = 1.242525 

BW Util details:
bwutil = 0.028086 
total_CMD = 36103 
util_bw = 1014 
Wasted_Col = 144 
Wasted_Row = 0 
Idle = 34945 

BW Util Bottlenecks: 
RCDc_limit = 60 
RCDWRc_limit = 0 
WTRc_limit = 0 
RTWc_limit = 0 
CCDLc_limit = 95 
rwq = 0 
CCDLc_limit_alone = 95 
WTRc_limit_alone = 0 
RTWc_limit_alone = 0 

Commands details: 
total_CMD = 36103 
n_nop = 35590 
Read = 507 
Write = 0 
L2_Alloc = 0 
L2_WB = 0 
n_act = 6 
n_pre = 0 
n_ref = 0 
n_req = 507 
total_req = 507 

Dual Bus Interface Util: 
issued_total_row = 6 
issued_total_col = 507 
Row_Bus_Util =  0.000166 
CoL_Bus_Util = 0.014043 
Either_Row_CoL_Bus_Util = 0.014209 
Issued_on_Two_Bus_Simul_Util = 0.000000 
issued_two_Eff = 0.000000 
queue_avg = 0.085865 


dram_util_bins: 0 0 0 0 0 0 0 0 0 0
dram_eff_bins: 0 0 0 0 0 0 0 0 0 0
mrqq: max=19 avg=0.0858654
Memory Partition 1: 
Cache L2_bank_002:
MSHR contents

Cache L2_bank_003:
MSHR contents

In Dram Latency Queue (total = 0): 
DRAM[1]: 16 bks, busW=4 BL=8 CL=12, tRRD=6 tCCD=2, tRCD=12 tRAS=28 tRP=12 tRC=40
n_cmd=36103 n_nop=35591 n_act=5 n_pre=0 n_ref_event=0 n_req=507 n_rd=507 n_rd_L2_A=0 n_write=0 n_wr_bk=0 bw_util=0.02809
n_activity=2017 dram_eff=0.5027
bk0: 192a 35817i bk1: 192a 35887i bk2: 64a 36064i bk3: 57a 36077i bk4: 2a 36089i bk5: 0a 36100i bk6: 0a 36101i bk7: 0a 36101i bk8: 0a 36101i bk9: 0a 36103i bk10: 0a 36103i bk11: 0a 36103i bk12: 0a 36103i bk13: 0a 36103i bk14: 0a 36103i bk15: 0a 36105i 

------------------------------------------------------------------------

Row_Buffer_Locality = 0.990138
Row_Buffer_Locality_read = 0.990138
Row_Buffer_Locality_write = -nan
Bank_Level_Parallism = 1.303465
Bank_Level_Parallism_Col = 1.300120
Bank_Level_Parallism_Ready = 1.019724
write_to_read_ratio_blp_rw_average = 0.000000
GrpLevelPara = 1.300120 

BW Util details:
bwutil = 0.028086 
total_CMD = 36103 
util_bw = 1014 
Wasted_Col = 102 
Wasted_Row = 0 
Idle = 34987 

BW Util Bottlenecks: 
RCDc_limit = 56 
RCDWRc_limit = 0 
WTRc_limit = 0 
RTWc_limit = 0 
CCDLc_limit = 54 
rwq = 0 
CCDLc_limit_alone = 54 
WTRc_limit_alone = 0 
RTWc_limit_alone = 0 

Commands details: 
total_CMD = 36103 
n_nop = 35591 
Read = 507 
Write = 0 
L2_Alloc = 0 
L2_WB = 0 
n_act = 5 
n_pre = 0 
n_ref = 0 
n_req = 507 
total_req = 507 

Dual Bus Interface Util: 
issued_total_row = 5 
issued_total_col = 507 
Row_Bus_Util =  0.000138 
CoL_Bus_Util = 0.014043 
Either_Row_CoL_Bus_Util = 0.014182 
Issued_on_Two_Bus_Simul_Util = 0.000000 
issued_two_Eff = 0.000000 
queue_avg = 0.041575 


dram_util_bins: 0 0 0 0 0 0 0 0 0 0
dram_eff_bins: 0 0 0 0 0 0 0 0 0 0
mrqq: max=12 avg=0.0415755
Memory Partition 2: 
Cache L2_bank_004:
MSHR contents

Cache L2_bank_005:
MSHR contents

In Dram Latency Queue (total = 0): 
DRAM[2]: 16 bks, busW=4 BL=8 CL=12, tRRD=6 tCCD=2, tRCD=12 tRAS=28 tRP=12 tRC=40
n_cmd=36103 n_nop=35834 n_act=4 n_pre=0 n_ref_event=0 n_req=265 n_rd=265 n_rd_L2_A=0 n_write=0 n_wr_bk=0 bw_util=0.01468
n_activity=1166 dram_eff=0.4545
bk0: 96a 36062i bk1: 96a 36023i bk2: 41a 36052i bk3: 32a 36049i bk4: 0a 36101i bk5: 0a 36102i bk6: 0a 36102i bk7: 0a 36103i bk8: 0a 36103i bk9: 0a 36103i bk10: 0a 36103i bk11: 0a 36103i bk12: 0a 36103i bk13: 0a 36103i bk14: 0a 36103i bk15: 0a 36103i 

------------------------------------------------------------------------

Row_Buffer_Locality = 0.984906
Row_Buffer_Locality_read = 0.984906
Row_Buffer_Locality_write = -nan
Bank_Level_Parallism = 1.120181
Bank_Level_Parallism_Col = 1.109339
Bank_Level_Parallism_Ready = 1.018868
write_to_read_ratio_blp_rw_average = 0.000000
GrpLevelPara = 1.109339 

BW Util details:
bwutil = 0.014680 
total_CMD = 36103 
util_bw = 530 
Wasted_Col = 82 
Wasted_Row = 0 
Idle = 35491 

BW Util Bottlenecks: 
RCDc_limit = 40 
RCDWRc_limit = 0 
WTRc_limit = 0 
RTWc_limit = 0 
CCDLc_limit = 53 
rwq = 0 
CCDLc_limit_alone = 53 
WTRc_limit_alone = 0 
RTWc_limit_alone = 0 

Commands details: 
total_CMD = 36103 
n_nop = 35834 
Read = 265 
Write = 0 
L2_Alloc = 0 
L2_WB = 0 
n_act = 4 
n_pre = 0 
n_ref = 0 
n_req = 265 
total_req = 265 

Dual Bus Interface Util: 
issued_total_row = 4 
issued_total_col = 265 
Row_Bus_Util =  0.000111 
CoL_Bus_Util = 0.007340 
Either_Row_CoL_Bus_Util = 0.007451 
Issued_on_Two_Bus_Simul_Util = 0.000000 
issued_two_Eff = 0.000000 
queue_avg = 0.011107 


dram_util_bins: 0 0 0 0 0 0 0 0 0 0
dram_eff_bins: 0 0 0 0 0 0 0 0 0 0
mrqq: max=6 avg=0.0111071
Memory Partition 3: 
Cache L2_bank_006:
MSHR contents

Cache L2_bank_007:
MSHR contents

In Dram Latency Queue (total = 0): 
DRAM[3]: 16 bks, busW=4 BL=8 CL=12, tRRD=6 tCCD=2, tRCD=12 tRAS=28 tRP=12 tRC=40
n_cmd=36103 n_nop=35834 n_act=4 n_pre=0 n_ref_event=0 n_req=265 n_rd=265 n_rd_L2_A=0 n_write=0 n_wr_bk=0 bw_util=0.01468
n_activity=1137 dram_eff=0.4661
bk0: 96a 36056i bk1: 96a 36039i bk2: 41a 36034i bk3: 32a 36068i bk4: 0a 36101i bk5: 0a 36102i bk6: 0a 36103i bk7: 0a 36103i bk8: 0a 36103i bk9: 0a 36103i bk10: 0a 36103i bk11: 0a 36103i bk12: 0a 36103i bk13: 0a 36103i bk14: 0a 36103i bk15: 0a 36103i 

------------------------------------------------------------------------

Row_Buffer_Locality = 0.984906
Row_Buffer_Locality_read = 0.984906
Row_Buffer_Locality_write = -nan
Bank_Level_Parallism = 1.093182
Bank_Level_Parallism_Col = 1.084668
Bank_Level_Parallism_Ready = 1.022642
write_to_read_ratio_blp_rw_average = 0.000000
GrpLevelPara = 1.084668 

BW Util details:
bwutil = 0.014680 
total_CMD = 36103 
util_bw = 530 
Wasted_Col = 95 
Wasted_Row = 0 
Idle = 35478 

BW Util Bottlenecks: 
RCDc_limit = 44 
RCDWRc_limit = 0 
WTRc_limit = 0 
RTWc_limit = 0 
CCDLc_limit = 59 
rwq = 0 
CCDLc_limit_alone = 59 
WTRc_limit_alone = 0 
RTWc_limit_alone = 0 

Commands details: 
total_CMD = 36103 
n_nop = 35834 
Read = 265 
Write = 0 
L2_Alloc = 0 
L2_WB = 0 
n_act = 4 
n_pre = 0 
n_ref = 0 
n_req = 265 
total_req = 265 

Dual Bus Interface Util: 
issued_total_row = 4 
issued_total_col = 265 
Row_Bus_Util =  0.000111 
CoL_Bus_Util = 0.007340 
Either_Row_CoL_Bus_Util = 0.007451 
Issued_on_Two_Bus_Simul_Util = 0.000000 
issued_two_Eff = 0.000000 
queue_avg = 0.009805 


dram_util_bins: 0 0 0 0 0 0 0 0 0 0
dram_eff_bins: 0 0 0 0 0 0 0 0 0 0
mrqq: max=7 avg=0.00980528
Memory Partition 4: 
Cache L2_bank_008:
MSHR contents

Cache L2_bank_009:
MSHR contents

In Dram Latency Queue (total = 0): 
DRAM[4]: 16 bks, busW=4 BL=8 CL=12, tRRD=6 tCCD=2, tRCD=12 tRAS=28 tRP=12 tRC=40
n_cmd=36103 n_nop=35839 n_act=5 n_pre=1 n_ref_event=0 n_req=258 n_rd=258 n_rd_L2_A=0 n_write=0 n_wr_bk=0 bw_util=0.01429
n_activity=1230 dram_eff=0.4195
bk0: 97a 35974i bk1: 96a 35990i bk2: 32a 36075i bk3: 33a 36067i bk4: 0a 36100i bk5: 0a 36101i bk6: 0a 36101i bk7: 0a 36101i bk8: 0a 36102i bk9: 0a 36103i bk10: 0a 36104i bk11: 0a 36104i bk12: 0a 36104i bk13: 0a 36104i bk14: 0a 36105i bk15: 0a 36106i 

------------------------------------------------------------------------

Row_Buffer_Locality = 0.980620
Row_Buffer_Locality_read = 0.980620
Row_Buffer_Locality_write = -nan
Bank_Level_Parallism = 1.165975
Bank_Level_Parallism_Col = 1.155650
Bank_Level_Parallism_Ready = 1.011583
write_to_read_ratio_blp_rw_average = 0.000000
GrpLevelPara = 1.155650 

BW Util details:
bwutil = 0.014292 
total_CMD = 36103 
util_bw = 516 
Wasted_Col = 100 
Wasted_Row = 7 
Idle = 35480 

BW Util Bottlenecks: 
RCDc_limit = 54 
RCDWRc_limit = 0 
WTRc_limit = 0 
RTWc_limit = 0 
CCDLc_limit = 54 
rwq = 0 
CCDLc_limit_alone = 54 
WTRc_limit_alone = 0 
RTWc_limit_alone = 0 

Commands details: 
total_CMD = 36103 
n_nop = 35839 
Read = 258 
Write = 0 
L2_Alloc = 0 
L2_WB = 0 
n_act = 5 
n_pre = 1 
n_ref = 0 
n_req = 258 
total_req = 258 

Dual Bus Interface Util: 
issued_total_row = 6 
issued_total_col = 258 
Row_Bus_Util =  0.000166 
CoL_Bus_Util = 0.007146 
Either_Row_CoL_Bus_Util = 0.007312 
Issued_on_Two_Bus_Simul_Util = 0.000000 
issued_two_Eff = 0.000000 
queue_avg = 0.015317 


dram_util_bins: 0 0 0 0 0 0 0 0 0 0
dram_eff_bins: 0 0 0 0 0 0 0 0 0 0
mrqq: max=5 avg=0.0153173
Memory Partition 5: 
Cache L2_bank_010:
MSHR contents

Cache L2_bank_011:
MSHR contents

In Dram Latency Queue (total = 0): 
DRAM[5]: 16 bks, busW=4 BL=8 CL=12, tRRD=6 tCCD=2, tRCD=12 tRAS=28 tRP=12 tRC=40
n_cmd=36103 n_nop=35841 n_act=5 n_pre=0 n_ref_event=0 n_req=257 n_rd=257 n_rd_L2_A=0 n_write=0 n_wr_bk=0 bw_util=0.01424
n_activity=1240 dram_eff=0.4145
bk0: 96a 36004i bk1: 96a 36027i bk2: 32a 36072i bk3: 32a 36077i bk4: 0a 36102i bk5: 1a 36090i bk6: 0a 36101i bk7: 0a 36101i bk8: 0a 36101i bk9: 0a 36101i bk10: 0a 36102i bk11: 0a 36102i bk12: 0a 36102i bk13: 0a 36103i bk14: 0a 36104i bk15: 0a 36105i 

------------------------------------------------------------------------

Row_Buffer_Locality = 0.980545
Row_Buffer_Locality_read = 0.980545
Row_Buffer_Locality_write = -nan
Bank_Level_Parallism = 1.154545
Bank_Level_Parallism_Col = 1.146789
Bank_Level_Parallism_Ready = 1.019455
write_to_read_ratio_blp_rw_average = 0.000000
GrpLevelPara = 1.146789 

BW Util details:
bwutil = 0.014237 
total_CMD = 36103 
util_bw = 514 
Wasted_Col = 84 
Wasted_Row = 0 
Idle = 35505 

BW Util Bottlenecks: 
RCDc_limit = 56 
RCDWRc_limit = 0 
WTRc_limit = 0 
RTWc_limit = 0 
CCDLc_limit = 36 
rwq = 0 
CCDLc_limit_alone = 36 
WTRc_limit_alone = 0 
RTWc_limit_alone = 0 

Commands details: 
total_CMD = 36103 
n_nop = 35841 
Read = 257 
Write = 0 
L2_Alloc = 0 
L2_WB = 0 
n_act = 5 
n_pre = 0 
n_ref = 0 
n_req = 257 
total_req = 257 

Dual Bus Interface Util: 
issued_total_row = 5 
issued_total_col = 257 
Row_Bus_Util =  0.000138 
CoL_Bus_Util = 0.007119 
Either_Row_CoL_Bus_Util = 0.007257 
Issued_on_Two_Bus_Simul_Util = 0.000000 
issued_two_Eff = 0.000000 
queue_avg = 0.005927 


dram_util_bins: 0 0 0 0 0 0 0 0 0 0
dram_eff_bins: 0 0 0 0 0 0 0 0 0 0
mrqq: max=5 avg=0.00592749

========= L2 cache stats =========
L2_cache_bank[0]: Access = 291, Miss = 291, Miss_rate = 1.000, Pending_hits = 0, Reservation_fails = 0
L2_cache_bank[1]: Access = 244, Miss = 219, Miss_rate = 0.898, Pending_hits = 0, Reservation_fails = 0
L2_cache_bank[2]: Access = 290, Miss = 288, Miss_rate = 0.993, Pending_hits = 0, Reservation_fails = 0
L2_cache_bank[3]: Access = 222, Miss = 220, Miss_rate = 0.991, Pending_hits = 0, Reservation_fails = 0
L2_cache_bank[4]: Access = 145, Miss = 145, Miss_rate = 1.000, Pending_hits = 0, Reservation_fails = 0
L2_cache_bank[5]: Access = 121, Miss = 120, Miss_rate = 0.992, Pending_hits = 0, Reservation_fails = 0
L2_cache_bank[6]: Access = 145, Miss = 145, Miss_rate = 1.000, Pending_hits = 0, Reservation_fails = 0
L2_cache_bank[7]: Access = 122, Miss = 122, Miss_rate = 1.000, Pending_hits = 0, Reservation_fails = 0
L2_cache_bank[8]: Access = 153, Miss = 146, Miss_rate = 0.954, Pending_hits = 0, Reservation_fails = 0
L2_cache_bank[9]: Access = 114, Miss = 114, Miss_rate = 1.000, Pending_hits = 0, Reservation_fails = 0
L2_cache_bank[10]: Access = 153, Miss = 145, Miss_rate = 0.948, Pending_hits = 0, Reservation_fails = 0
L2_cache_bank[11]: Access = 116, Miss = 114, Miss_rate = 0.983, Pending_hits = 0, Reservation_fails = 0
L2_total_cache_accesses = 2116
L2_total_cache_misses = 2069
L2_total_cache_miss_rate = 0.9778
L2_total_cache_pending_hits = 0
L2_total_cache_reservation_fails = 0
L2_total_cache_breakdown:
	L2_cache_stats_breakdown[GLOBAL_ACC_R][HIT] = 31
	L2_cache_stats_breakdown[GLOBAL_ACC_R][HIT_RESERVED] = 0
	L2_cache_stats_breakdown[GLOBAL_ACC_R][MISS] = 523
	L2_cache_stats_breakdown[GLOBAL_ACC_R][RESERVATION_FAIL] = 0
	L2_cache_stats_breakdown[GLOBAL_ACC_R][SECTOR_MISS] = 1536
	L2_cache_stats_breakdown[GLOBAL_ACC_R][MSHR_HIT] = 0
	L2_cache_stats_breakdown[LOCAL_ACC_R][HIT] = 0
	L2_cache_stats_breakdown[LOCAL_ACC_R][HIT_RESERVED] = 0
	L2_cache_stats_breakdown[LOCAL_ACC_R][MISS] = 0
	L2_cache_stats_breakdown[LOCAL_ACC_R][RESERVATION_FAIL] = 0
	L2_cache_stats_breakdown[LOCAL_ACC_R][SECTOR_MISS] = 0
	L2_cache_stats_breakdown[LOCAL_ACC_R][MSHR_HIT] = 0
	L2_cache_stats_breakdown[CONST_ACC_R][HIT] = 0
	L2_cache_stats_breakdown[CONST_ACC_R][HIT_RESERVED] = 0
	L2_cache_stats_breakdown[CONST_ACC_R][MISS] = 0
	L2_cache_stats_breakdown[CONST_ACC_R][RESERVATION_FAIL] = 0
	L2_cache_stats_breakdown[CONST_ACC_R][SECTOR_MISS] = 0
	L2_cache_stats_breakdown[CONST_ACC_R][MSHR_HIT] = 0
	L2_cache_stats_breakdown[TEXTURE_ACC_R][HIT] = 0
	L2_cache_stats_breakdown[TEXTURE_ACC_R][HIT_RESERVED] = 0
	L2_cache_stats_breakdown[TEXTURE_ACC_R][MISS] = 0
	L2_cache_stats_breakdown[TEXTURE_ACC_R][RESERVATION_FAIL] = 0
	L2_cache_stats_breakdown[TEXTURE_ACC_R][SECTOR_MISS] = 0
	L2_cache_stats_breakdown[TEXTURE_ACC_R][MSHR_HIT] = 0
	L2_cache_stats_breakdown[GLOBAL_ACC_W][HIT] = 16
	L2_cache_stats_breakdown[GLOBAL_ACC_W][HIT_RESERVED] = 0
	L2_cache_stats_breakdown[GLOBAL_ACC_W][MISS] = 10
	L2_cache_stats_breakdown[GLOBAL_ACC_W][RESERVATION_FAIL] = 0
	L2_cache_stats_breakdown[GLOBAL_ACC_W][SECTOR_MISS] = 0
	L2_cache_stats_breakdown[GLOBAL_ACC_W][MSHR_HIT] = 0
	L2_cache_stats_breakdown[LOCAL_ACC_W][HIT] = 0
	L2_cache_stats_breakdown[LOCAL_ACC_W][HIT_RESERVED] = 0
	L2_cache_stats_breakdown[LOCAL_ACC_W][MISS] = 0
	L2_cache_stats_breakdown[LOCAL_ACC_W][RESERVATION_FAIL] = 0
	L2_cache_stats_breakdown[LOCAL_ACC_W][SECTOR_MISS] = 0
	L2_cache_stats_breakdown[LOCAL_ACC_W][MSHR_HIT] = 0
	L2_cache_stats_breakdown[L1_WRBK_ACC][HIT] = 0
	L2_cache_stats_breakdown[L1_WRBK_ACC][HIT_RESERVED] = 0
	L2_cache_stats_breakdown[L1_WRBK_ACC][MISS] = 0
	L2_cache_stats_breakdown[L1_WRBK_ACC][RESERVATION_FAIL] = 0
	L2_cache_stats_breakdown[L1_WRBK_ACC][SECTOR_MISS] = 0
	L2_cache_stats_breakdown[L1_WRBK_ACC][MSHR_HIT] = 0
	L2_cache_stats_breakdown[L2_WRBK_ACC][HIT] = 0
	L2_cache_stats_breakdown[L2_WRBK_ACC][HIT_RESERVED] = 0
	L2_cache_stats_breakdown[L2_WRBK_ACC][MISS] = 0
	L2_cache_stats_breakdown[L2_WRBK_ACC][RESERVATION_FAIL] = 0
	L2_cache_stats_breakdown[L2_WRBK_ACC][SECTOR_MISS] = 0
	L2_cache_stats_breakdown[L2_WRBK_ACC][MSHR_HIT] = 0
	L2_cache_stats_breakdown[INST_ACC_R][HIT] = 0
	L2_cache_stats_breakdown[INST_ACC_R][HIT_RESERVED] = 0
	L2_cache_stats_breakdown[INST_ACC_R][MISS] = 0
	L2_cache_stats_breakdown[INST_ACC_R][RESERVATION_FAIL] = 0
	L2_cache_stats_breakdown[INST_ACC_R][SECTOR_MISS] = 0
	L2_cache_stats_breakdown[INST_ACC_R][MSHR_HIT] = 0
	L2_cache_stats_breakdown[L1_WR_ALLOC_R][HIT] = 0
	L2_cache_stats_breakdown[L1_WR_ALLOC_R][HIT_RESERVED] = 0
	L2_cache_stats_breakdown[L1_WR_ALLOC_R][MISS] = 0
	L2_cache_stats_breakdown[L1_WR_ALLOC_R][RESERVATION_FAIL] = 0
	L2_cache_stats_breakdown[L1_WR_ALLOC_R][SECTOR_MISS] = 0
	L2_cache_stats_breakdown[L1_WR_ALLOC_R][MSHR_HIT] = 0
	L2_cache_stats_breakdown[L2_WR_ALLOC_R][HIT] = 0
	L2_cache_stats_breakdown[L2_WR_ALLOC_R][HIT_RESERVED] = 0
	L2_cache_stats_breakdown[L2_WR_ALLOC_R][MISS] = 0
	L2_cache_stats_breakdown[L2_WR_ALLOC_R][RESERVATION_FAIL] = 0
	L2_cache_stats_breakdown[L2_WR_ALLOC_R][SECTOR_MISS] = 0
	L2_cache_stats_breakdown[L2_WR_ALLOC_R][MSHR_HIT] = 0
	L2_cache_stats_breakdown[GLOBAL_ACC_R][TOTAL_ACCESS] = 2090
	L2_cache_stats_breakdown[GLOBAL_ACC_W][TOTAL_ACCESS] = 26
L2_total_cache_reservation_fail_breakdown:
L2_cache_data_port_util = 0.000
L2_cache_fill_port_util = 0.015

icnt_total_pkts_mem_to_simt=2116
icnt_total_pkts_simt_to_mem=2116
LD_mem_lat_dist  0 0 0 0 0 0 0 0 0 0 0 0 0 0 0 0 0 0 0 0 0 0 0 0 0 0 0
ST_mem_lat_dist  0 0 0 0 0 0 0 0 0 0 0 0 0 0 0 0 0 0 0 0 0 0 0 0 0 0 0
----------------------------Interconnect-DETAILS--------------------------------
Req_Network_injected_packets_num = 2116
Req_Network_cycles = 11676
Req_Network_injected_packets_per_cycle =       0.1812 
Req_Network_conflicts_per_cycle =       0.1242
Req_Network_conflicts_per_cycle_util =       2.0394
Req_Bank_Level_Parallism =       2.9761
Req_Network_in_buffer_full_per_cycle =       0.0000
Req_Network_in_buffer_avg_util =       0.1273
Req_Network_out_buffer_full_per_cycle =       0.0000
Req_Network_out_buffer_avg_util =       0.0151

Reply_Network_injected_packets_num = 2116
Reply_Network_cycles = 11676
Reply_Network_injected_packets_per_cycle =        0.1812
Reply_Network_conflicts_per_cycle =        0.0176
Reply_Network_conflicts_per_cycle_util =       0.2804
Reply_Bank_Level_Parallism =       2.8947
Reply_Network_in_buffer_full_per_cycle =       0.0000
Reply_Network_in_buffer_avg_util =       0.0085
Reply_Network_out_buffer_full_per_cycle =       0.0000
Reply_Network_out_buffer_avg_util =       0.0121
----------------------------END-of-Interconnect-DETAILS-------------------------


gpgpu_simulation_time = 0 days, 0 hrs, 0 min, 1 sec (1 sec)
gpgpu_simulation_rate = 786680 (inst/sec)
gpgpu_simulation_rate = 11676 (cycle/sec)
gpgpu_silicon_slowdown = 96951x
launching memcpy command : MemcpyHtoD,0x00007edd61660000,1
Processing kernel ./util/tracer_nvbit/BFS_traces/kernel-2-ctx_0x38a97040.traceg.xz
-kernel name = _Z6KernelP4NodePiPbS2_S1_S2_i
-kernel id = 2
-grid dim = (256,1,1)
-block dim = (256,1,1)
-shmem = 0
-nregs = 23
-binary version = 86
-cuda stream id = 0
-shmem base_addr = 0x00007edd79000000
-local mem base_addr = 0x00007edd77000000
-nvbit version = 1.7.6
-accelsim tracer version = 5
-enable lineinfo = 0
Header info loaded for kernel command : ./util/tracer_nvbit/BFS_traces/kernel-2-ctx_0x38a97040.traceg.xz
launching kernel name: _Z6KernelP4NodePiPbS2_S1_S2_i uid: 2 cuda_stream_id: 0
GPGPU-Sim uArch: Shader 3 bind to kernel 2 '_Z6KernelP4NodePiPbS2_S1_S2_i'
thread block = 0,0,0
GPGPU-Sim uArch: Shader 4 bind to kernel 2 '_Z6KernelP4NodePiPbS2_S1_S2_i'
thread block = 1,0,0
GPGPU-Sim uArch: Shader 5 bind to kernel 2 '_Z6KernelP4NodePiPbS2_S1_S2_i'
thread block = 2,0,0
GPGPU-Sim uArch: Shader 6 bind to kernel 2 '_Z6KernelP4NodePiPbS2_S1_S2_i'
thread block = 3,0,0
GPGPU-Sim uArch: Shader 7 bind to kernel 2 '_Z6KernelP4NodePiPbS2_S1_S2_i'
thread block = 4,0,0
GPGPU-Sim uArch: Shader 8 bind to kernel 2 '_Z6KernelP4NodePiPbS2_S1_S2_i'
thread block = 5,0,0
GPGPU-Sim uArch: Shader 9 bind to kernel 2 '_Z6KernelP4NodePiPbS2_S1_S2_i'
thread block = 6,0,0
GPGPU-Sim uArch: Shader 10 bind to kernel 2 '_Z6KernelP4NodePiPbS2_S1_S2_i'
thread block = 7,0,0
GPGPU-Sim uArch: Shader 11 bind to kernel 2 '_Z6KernelP4NodePiPbS2_S1_S2_i'
thread block = 8,0,0
GPGPU-Sim uArch: Shader 12 bind to kernel 2 '_Z6KernelP4NodePiPbS2_S1_S2_i'
thread block = 9,0,0
GPGPU-Sim uArch: Shader 13 bind to kernel 2 '_Z6KernelP4NodePiPbS2_S1_S2_i'
thread block = 10,0,0
GPGPU-Sim uArch: Shader 14 bind to kernel 2 '_Z6KernelP4NodePiPbS2_S1_S2_i'
thread block = 11,0,0
GPGPU-Sim uArch: Shader 0 bind to kernel 2 '_Z6KernelP4NodePiPbS2_S1_S2_i'
thread block = 12,0,0
GPGPU-Sim uArch: Shader 1 bind to kernel 2 '_Z6KernelP4NodePiPbS2_S1_S2_i'
thread block = 13,0,0
GPGPU-Sim uArch: Shader 2 bind to kernel 2 '_Z6KernelP4NodePiPbS2_S1_S2_i'
thread block = 14,0,0
thread block = 15,0,0
thread block = 16,0,0
thread block = 17,0,0
thread block = 18,0,0
thread block = 19,0,0
thread block = 20,0,0
thread block = 21,0,0
thread block = 22,0,0
thread block = 23,0,0
thread block = 24,0,0
thread block = 25,0,0
thread block = 26,0,0
thread block = 27,0,0
thread block = 28,0,0
thread block = 29,0,0
thread block = 30,0,0
thread block = 31,0,0
thread block = 32,0,0
thread block = 33,0,0
thread block = 34,0,0
thread block = 35,0,0
thread block = 36,0,0
thread block = 37,0,0
thread block = 38,0,0
thread block = 39,0,0
thread block = 40,0,0
thread block = 41,0,0
thread block = 42,0,0
thread block = 43,0,0
thread block = 44,0,0
thread block = 45,0,0
thread block = 46,0,0
thread block = 47,0,0
thread block = 48,0,0
thread block = 49,0,0
thread block = 50,0,0
thread block = 51,0,0
thread block = 52,0,0
thread block = 53,0,0
thread block = 54,0,0
thread block = 55,0,0
thread block = 56,0,0
thread block = 57,0,0
thread block = 58,0,0
thread block = 59,0,0
thread block = 60,0,0
thread block = 61,0,0
thread block = 62,0,0
thread block = 63,0,0
thread block = 64,0,0
thread block = 65,0,0
thread block = 66,0,0
thread block = 67,0,0
thread block = 68,0,0
thread block = 69,0,0
thread block = 70,0,0
thread block = 71,0,0
thread block = 72,0,0
thread block = 73,0,0
thread block = 74,0,0
thread block = 75,0,0
thread block = 76,0,0
thread block = 77,0,0
thread block = 78,0,0
thread block = 79,0,0
thread block = 80,0,0
thread block = 81,0,0
thread block = 82,0,0
thread block = 83,0,0
thread block = 84,0,0
thread block = 85,0,0
thread block = 86,0,0
thread block = 87,0,0
thread block = 88,0,0
thread block = 89,0,0
thread block = 90,0,0
thread block = 91,0,0
thread block = 92,0,0
thread block = 93,0,0
thread block = 94,0,0
thread block = 95,0,0
thread block = 96,0,0
thread block = 97,0,0
thread block = 98,0,0
thread block = 99,0,0
thread block = 100,0,0
thread block = 101,0,0
thread block = 102,0,0
thread block = 103,0,0
thread block = 104,0,0
thread block = 105,0,0
thread block = 106,0,0
thread block = 107,0,0
thread block = 108,0,0
thread block = 109,0,0
thread block = 110,0,0
thread block = 111,0,0
thread block = 112,0,0
thread block = 113,0,0
thread block = 114,0,0
thread block = 115,0,0
thread block = 116,0,0
thread block = 117,0,0
thread block = 118,0,0
thread block = 119,0,0
thread block = 120,0,0
thread block = 121,0,0
thread block = 122,0,0
thread block = 123,0,0
thread block = 124,0,0
thread block = 125,0,0
thread block = 126,0,0
thread block = 127,0,0
thread block = 128,0,0
thread block = 129,0,0
thread block = 130,0,0
thread block = 131,0,0
thread block = 132,0,0
thread block = 133,0,0
thread block = 134,0,0
thread block = 135,0,0
thread block = 136,0,0
thread block = 137,0,0
thread block = 138,0,0
thread block = 139,0,0
thread block = 140,0,0
thread block = 141,0,0
thread block = 142,0,0
thread block = 143,0,0
thread block = 144,0,0
thread block = 145,0,0
thread block = 146,0,0
thread block = 147,0,0
thread block = 148,0,0
thread block = 149,0,0
thread block = 150,0,0
thread block = 151,0,0
thread block = 152,0,0
thread block = 153,0,0
thread block = 154,0,0
thread block = 155,0,0
thread block = 156,0,0
thread block = 157,0,0
thread block = 158,0,0
thread block = 159,0,0
thread block = 160,0,0
thread block = 161,0,0
thread block = 162,0,0
thread block = 163,0,0
thread block = 164,0,0
thread block = 165,0,0
thread block = 166,0,0
thread block = 167,0,0
thread block = 168,0,0
thread block = 169,0,0
thread block = 170,0,0
thread block = 171,0,0
thread block = 172,0,0
thread block = 173,0,0
thread block = 174,0,0
thread block = 175,0,0
thread block = 176,0,0
thread block = 177,0,0
thread block = 178,0,0
thread block = 179,0,0
thread block = 180,0,0
thread block = 181,0,0
thread block = 182,0,0
thread block = 183,0,0
thread block = 184,0,0
thread block = 185,0,0
thread block = 186,0,0
thread block = 187,0,0
thread block = 188,0,0
thread block = 189,0,0
thread block = 190,0,0
thread block = 191,0,0
thread block = 192,0,0
thread block = 193,0,0
thread block = 194,0,0
thread block = 195,0,0
thread block = 196,0,0
thread block = 197,0,0
thread block = 198,0,0
thread block = 199,0,0
thread block = 200,0,0
thread block = 201,0,0
thread block = 202,0,0
thread block = 203,0,0
thread block = 204,0,0
thread block = 205,0,0
thread block = 206,0,0
thread block = 207,0,0
thread block = 208,0,0
thread block = 209,0,0
thread block = 210,0,0
thread block = 211,0,0
thread block = 212,0,0
thread block = 213,0,0
thread block = 214,0,0
thread block = 215,0,0
thread block = 216,0,0
thread block = 217,0,0
thread block = 218,0,0
thread block = 219,0,0
thread block = 220,0,0
thread block = 221,0,0
thread block = 222,0,0
thread block = 223,0,0
thread block = 224,0,0
thread block = 225,0,0
thread block = 226,0,0
thread block = 227,0,0
thread block = 228,0,0
thread block = 229,0,0
thread block = 230,0,0
thread block = 231,0,0
thread block = 232,0,0
thread block = 233,0,0
thread block = 234,0,0
thread block = 235,0,0
thread block = 236,0,0
thread block = 237,0,0
thread block = 238,0,0
thread block = 239,0,0
thread block = 240,0,0
thread block = 241,0,0
thread block = 242,0,0
thread block = 243,0,0
thread block = 244,0,0
thread block = 245,0,0
thread block = 246,0,0
thread block = 247,0,0
thread block = 248,0,0
thread block = 249,0,0
thread block = 250,0,0
thread block = 251,0,0
thread block = 252,0,0
thread block = 253,0,0
thread block = 254,0,0
thread block = 255,0,0
Destroy streams for kernel 2: size 0
kernel_name = _Z6KernelP4NodePiPbS2_S1_S2_i 
kernel_launch_uid = 2 
kernel_stream_id = 0
gpu_sim_cycle = 13209
gpu_sim_insn = 788072
gpu_ipc =      59.6617
gpu_tot_sim_cycle = 24885
gpu_tot_sim_insn = 1574752
gpu_tot_ipc =      63.2812
gpu_tot_issued_cta = 512
gpu_occupancy = 26.6764% 
gpu_tot_occupancy = 40.6819% 
max_total_param_size = 0
gpu_stall_dramfull = 0
gpu_stall_icnt2sh    = 0
partiton_level_parallism =       0.1878
partiton_level_parallism_total  =       0.1847
partiton_level_parallism_util =       2.3286
partiton_level_parallism_util_total  =       2.5878
L2_BW  =       6.8011 GB/Sec
L2_BW_total  =       6.6902 GB/Sec
gpu_total_sim_rate=1574752

========= Core cache stats =========
L1I_cache:
	L1I_total_cache_accesses = 0
	L1I_total_cache_misses = 0
	L1I_total_cache_pending_hits = 0
	L1I_total_cache_reservation_fails = 0
L1D_cache:
	L1D_cache_core[0]: Access = 0, Miss = 0, Miss_rate = -nan, Pending_hits = 0, Reservation_fails = 0
	L1D_cache_core[1]: Access = 0, Miss = 0, Miss_rate = -nan, Pending_hits = 0, Reservation_fails = 0
	L1D_cache_core[2]: Access = 0, Miss = 0, Miss_rate = -nan, Pending_hits = 0, Reservation_fails = 0
	L1D_cache_core[3]: Access = 0, Miss = 0, Miss_rate = -nan, Pending_hits = 0, Reservation_fails = 0
	L1D_cache_core[4]: Access = 0, Miss = 0, Miss_rate = -nan, Pending_hits = 0, Reservation_fails = 0
	L1D_cache_core[5]: Access = 0, Miss = 0, Miss_rate = -nan, Pending_hits = 0, Reservation_fails = 0
	L1D_cache_core[6]: Access = 0, Miss = 0, Miss_rate = -nan, Pending_hits = 0, Reservation_fails = 0
	L1D_cache_core[7]: Access = 0, Miss = 0, Miss_rate = -nan, Pending_hits = 0, Reservation_fails = 0
	L1D_cache_core[8]: Access = 0, Miss = 0, Miss_rate = -nan, Pending_hits = 0, Reservation_fails = 0
	L1D_cache_core[9]: Access = 0, Miss = 0, Miss_rate = -nan, Pending_hits = 0, Reservation_fails = 0
	L1D_cache_core[10]: Access = 0, Miss = 0, Miss_rate = -nan, Pending_hits = 0, Reservation_fails = 0
	L1D_cache_core[11]: Access = 0, Miss = 0, Miss_rate = -nan, Pending_hits = 0, Reservation_fails = 0
	L1D_cache_core[12]: Access = 0, Miss = 0, Miss_rate = -nan, Pending_hits = 0, Reservation_fails = 0
	L1D_cache_core[13]: Access = 0, Miss = 0, Miss_rate = -nan, Pending_hits = 0, Reservation_fails = 0
	L1D_cache_core[14]: Access = 0, Miss = 0, Miss_rate = -nan, Pending_hits = 0, Reservation_fails = 0
	L1D_total_cache_accesses = 0
	L1D_total_cache_misses = 0
	L1D_total_cache_pending_hits = 0
	L1D_total_cache_reservation_fails = 0
	L1D_cache_data_port_util = 0.000
	L1D_cache_fill_port_util = 0.000
L1C_cache:
	L1C_total_cache_accesses = 0
	L1C_total_cache_misses = 0
	L1C_total_cache_pending_hits = 0
	L1C_total_cache_reservation_fails = 0
L1T_cache:
	L1T_total_cache_accesses = 0
	L1T_total_cache_misses = 0
	L1T_total_cache_pending_hits = 0
	L1T_total_cache_reservation_fails = 0

Total_core_cache_stats:

Total_core_cache_fail_stats:
ctas_completed 512, Shader 0 warp_id issue ditsribution:
warp_id:
0, 1, 2, 3, 4, 5, 6, 7, 8, 9, 10, 11, 12, 13, 14, 15, 16, 17, 18, 19, 20, 21, 22, 23, 24, 25, 26, 27, 28, 29, 30, 31, 32, 33, 34, 35, 36, 37, 38, 39, 40, 41, 42, 43, 44, 45, 46, 47, 
distro:
303, 52, 52, 52, 52, 52, 52, 52, 78, 78, 78, 78, 78, 78, 78, 78, 78, 78, 78, 78, 78, 78, 78, 78, 78, 78, 78, 78, 78, 78, 78, 78, 78, 78, 78, 78, 78, 78, 78, 78, 78, 78, 78, 78, 78, 78, 78, 78, 
gpgpu_n_tot_thrd_icount = 1768800
gpgpu_n_tot_w_icount = 55275
gpgpu_n_stall_shd_mem = 0
gpgpu_n_mem_read_local = 0
gpgpu_n_mem_write_local = 0
gpgpu_n_mem_read_global = 4410
gpgpu_n_mem_write_global = 186
gpgpu_n_mem_texture = 0
gpgpu_n_mem_const = 0
gpgpu_n_load_insn  = 131386
gpgpu_n_store_insn = 186
gpgpu_n_shmem_insn = 0
gpgpu_n_sstarr_insn = 0
gpgpu_n_tex_insn = 0
gpgpu_n_const_mem_insn = 0
gpgpu_n_param_mem_insn = 0
gpgpu_n_shmem_bkconflict = 0
gpgpu_n_l1cache_bkconflict = 0
gpgpu_n_intrawarp_mshr_merge = 0
gpgpu_n_cmem_portconflict = 0
gpgpu_stall_shd_mem[c_mem][resource_stall] = 0
gpgpu_stall_shd_mem[s_mem][bk_conf] = 0
gpgpu_stall_shd_mem[gl_mem][resource_stall] = 0
gpgpu_stall_shd_mem[gl_mem][coal_stall] = 0
gpgpu_stall_shd_mem[gl_mem][data_port_stall] = 0
gpu_reg_bank_conflict_stalls = 0
Warp Occupancy Distribution:
[...]
dram[4]:     none      none      none      none      none     4191525   1659564    792175    791698    517472    none      none     2155714    none      none      none  
dram[5]:     none      none      none      none     2255150   4197315    849220   1637536    388911    none     1968984    none     2189182   2169515    none      none  
maximum mf latency per bank:
dram[0]:       3541      3253      3528      3535      3559      3556      3192      3282      3202      3252      3379      3299      3268      3198      3375      3446
dram[1]:       2723      2598      2700      2690      2684      2826      2435      2695      2579      2641      2542      2319      2478      2654      2381      2404
dram[2]:       1962      1881      1932      1977      1962      1961      1831      1682      1759      1765      1841      1872      1699      1762      1793      1791
dram[3]:       1993      1886      2006      2018      1990      2061      1697      1762      1962      1761      1867      1845      1722      1917      1878      1931
dram[4]:       1952      1772      1964      1961      1989      1991      1777      1766      1844      1740      1879      1728      1798      1825      1917      1792
dram[5]:       1945      1945      1980      1976      1997      1987      1925      1714      1768      1791      1871      1879      1979      1917      1993      1786
Memory Partition 0: 
Cache L2_bank_000:
MSHR contents

Cache L2_bank_001:
MSHR contents

In Dram Latency Queue (total = 0): 
DRAM[0]: 16 bks, busW=4 BL=8 CL=12, tRRD=6 tCCD=2, tRCD=12 tRAS=28 tRP=12 tRC=40
n_cmd=1230522 n_nop=1165375 n_act=8532 n_pre=8516 n_ref_event=0 n_req=46898 n_rd=44373 n_rd_L2_A=0 n_write=0 n_wr_bk=4024 bw_util=0.07866
n_activity=447931 dram_eff=0.2161
bk0: 2436a 1213957i bk1: 2514a 1214701i bk2: 2731a 1214796i bk3: 2687a 1215570i bk4: 2413a 1210429i bk5: 2416a 1211963i bk6: 2524a 1208073i bk7: 2519a 1207056i bk8: 2544a 1205619i bk9: 2531a 1206696i bk10: 3089a 1205153i bk11: 3116a 1204987i bk12: 3260a 1198768i bk13: 3293a 1198687i bk14: 3195a 1200628i bk15: 3105a 1202326i 

------------------------------------------------------------------------

Row_Buffer_Locality = 0.818073
Row_Buffer_Locality_read = 0.839204
Row_Buffer_Locality_write = 0.446733
Bank_Level_Parallism = 1.647543
Bank_Level_Parallism_Col = 1.644772
Bank_Level_Parallism_Ready = 1.251633
write_to_read_ratio_blp_rw_average = 0.226258
GrpLevelPara = 1.349292 

BW Util details:
bwutil = 0.078661 
total_CMD = 1230522 
util_bw = 96794 
Wasted_Col = 103260 
Wasted_Row = 67962 
Idle = 962506 

BW Util Bottlenecks: 
RCDc_limit = 73712 
RCDWRc_limit = 6865 
WTRc_limit = 12306 
RTWc_limit = 33538 
CCDLc_limit = 12194 
rwq = 0 
CCDLc_limit_alone = 9894 
WTRc_limit_alone = 11905 
RTWc_limit_alone = 31639 

Commands details: 
total_CMD = 1230522 
n_nop = 1165375 
Read = 44373 
Write = 0 
L2_Alloc = 0 
L2_WB = 4024 
n_act = 8532 
n_pre = 8516 
n_ref = 0 
n_req = 46898 
total_req = 48397 

Dual Bus Interface Util: 
issued_total_row = 17048 
issued_total_col = 48397 
Row_Bus_Util =  0.013854 
CoL_Bus_Util = 0.039330 
Either_Row_CoL_Bus_Util = 0.052943 
Issued_on_Two_Bus_Simul_Util = 0.000242 
issued_two_Eff = 0.004574 
queue_avg = 0.405365 


dram_util_bins: 0 0 0 0 0 0 0 0 0 0
dram_eff_bins: 0 0 0 0 0 0 0 0 0 0
mrqq: max=64 avg=0.405365
Memory Partition 1: 
Cache L2_bank_002:
MSHR contents

Cache L2_bank_003:
MSHR contents

In Dram Latency Queue (total = 0): 
DRAM[1]: 16 bks, busW=4 BL=8 CL=12, tRRD=6 tCCD=2, tRCD=12 tRAS=28 tRP=12 tRC=40
n_cmd=1230522 n_nop=1167396 n_act=7952 n_pre=7936 n_ref_event=0 n_req=46037 n_rd=43580 n_rd_L2_A=0 n_write=0 n_wr_bk=3960 bw_util=0.07727
n_activity=423298 dram_eff=0.2246
bk0: 2467a 1214687i bk1: 2536a 1214655i bk2: 2647a 1215885i bk3: 2645a 1215999i bk4: 2484a 1211470i bk5: 2516a 1210766i bk6: 2468a 1208720i bk7: 2516a 1207318i bk8: 2439a 1206636i bk9: 2496a 1206770i bk10: 2978a 1208388i bk11: 3092a 1205909i bk12: 3083a 1200813i bk13: 3095a 1199803i bk14: 3086a 1203040i bk15: 3032a 1203606i 

------------------------------------------------------------------------

Row_Buffer_Locality = 0.827269
Row_Buffer_Locality_read = 0.848508
Row_Buffer_Locality_write = 0.450549
Bank_Level_Parallism = 1.663800
Bank_Level_Parallism_Col = 1.668659
Bank_Level_Parallism_Ready = 1.257982
write_to_read_ratio_blp_rw_average = 0.235081
GrpLevelPara = 1.360940 

BW Util details:
bwutil = 0.077268 
total_CMD = 1230522 
util_bw = 95080 
Wasted_Col = 97919 
Wasted_Row = 62610 
Idle = 974913 

BW Util Bottlenecks: 
RCDc_limit = 67803 
RCDWRc_limit = 6554 
WTRc_limit = 11402 
RTWc_limit = 33179 
CCDLc_limit = 12548 
rwq = 0 
CCDLc_limit_alone = 10283 
WTRc_limit_alone = 10986 
RTWc_limit_alone = 31330 

Commands details: 
total_CMD = 1230522 
n_nop = 1167396 
Read = 43580 
Write = 0 
L2_Alloc = 0 
L2_WB = 3960 
n_act = 7952 
n_pre = 7936 
n_ref = 0 
n_req = 46037 
total_req = 47540 

Dual Bus Interface Util: 
issued_total_row = 15888 
issued_total_col = 47540 
Row_Bus_Util =  0.012912 
CoL_Bus_Util = 0.038634 
Either_Row_CoL_Bus_Util = 0.051300 
Issued_on_Two_Bus_Simul_Util = 0.000245 
issued_two_Eff = 0.004784 
queue_avg = 0.451317 


dram_util_bins: 0 0 0 0 0 0 0 0 0 0
dram_eff_bins: 0 0 0 0 0 0 0 0 0 0
mrqq: max=64 avg=0.451317
Memory Partition 2: 
Cache L2_bank_004:
MSHR contents

Cache L2_bank_005:
MSHR contents

In Dram Latency Queue (total = 0): 
DRAM[2]: 16 bks, busW=4 BL=8 CL=12, tRRD=6 tCCD=2, tRCD=12 tRAS=28 tRP=12 tRC=40
n_cmd=1230522 n_nop=1214362 n_act=1453 n_pre=1437 n_ref_event=0 n_req=13264 n_rd=13252 n_rd_L2_A=0 n_write=0 n_wr_bk=24 bw_util=0.02158
n_activity=131366 dram_eff=0.2021
bk0: 742a 1228136i bk1: 752a 1228228i bk2: 788a 1228126i bk3: 758a 1228036i bk4: 787a 1227606i bk5: 811a 1227783i bk6: 768a 1228111i bk7: 780a 1227709i bk8: 810a 1227199i bk9: 801a 1227434i bk10: 855a 1228316i bk11: 865a 1227918i bk12: 908a 1227874i bk13: 936a 1227936i bk14: 931a 1227810i bk15: 960a 1227813i 

------------------------------------------------------------------------

Row_Buffer_Locality = 0.890455
Row_Buffer_Locality_read = 0.891186
Row_Buffer_Locality_write = 0.083333
Bank_Level_Parallism = 1.094261
Bank_Level_Parallism_Col = 1.071249
Bank_Level_Parallism_Ready = 1.024449
write_to_read_ratio_blp_rw_average = 0.006499
GrpLevelPara = 1.056375 

BW Util details:
bwutil = 0.021578 
total_CMD = 1230522 
util_bw = 26552 
Wasted_Col = 17740 
Wasted_Row = 15130 
Idle = 1171100 

BW Util Bottlenecks: 
RCDc_limit = 16205 
RCDWRc_limit = 63 
WTRc_limit = 33 
RTWc_limit = 127 
CCDLc_limit = 1929 
rwq = 0 
CCDLc_limit_alone = 1924 
WTRc_limit_alone = 33 
RTWc_limit_alone = 122 

Commands details: 
total_CMD = 1230522 
n_nop = 1214362 
Read = 13252 
Write = 0 
L2_Alloc = 0 
L2_WB = 24 
n_act = 1453 
n_pre = 1437 
n_ref = 0 
n_req = 13264 
total_req = 13276 

Dual Bus Interface Util: 
issued_total_row = 2890 
issued_total_col = 13276 
Row_Bus_Util =  0.002349 
CoL_Bus_Util = 0.010789 
Either_Row_CoL_Bus_Util = 0.013133 
Issued_on_Two_Bus_Simul_Util = 0.000005 
issued_two_Eff = 0.000371 
queue_avg = 0.024582 


dram_util_bins: 0 0 0 0 0 0 0 0 0 0
dram_eff_bins: 0 0 0 0 0 0 0 0 0 0
mrqq: max=9 avg=0.0245823
Memory Partition 3: 
Cache L2_bank_006:
MSHR contents

Cache L2_bank_007:
MSHR contents

In Dram Latency Queue (total = 0): 
DRAM[3]: 16 bks, busW=4 BL=8 CL=12, tRRD=6 tCCD=2, tRCD=12 tRAS=28 tRP=12 tRC=40
n_cmd=1230522 n_nop=1214505 n_act=1420 n_pre=1404 n_ref_event=0 n_req=13190 n_rd=13182 n_rd_L2_A=0 n_write=0 n_wr_bk=16 bw_util=0.02145
n_activity=130388 dram_eff=0.2024
bk0: 749a 1228284i bk1: 737a 1228046i bk2: 767a 1228281i bk3: 774a 1227955i bk4: 805a 1227676i bk5: 812a 1227692i bk6: 783a 1228096i bk7: 781a 1228140i bk8: 760a 1227725i bk9: 776a 1227190i bk10: 855a 1227638i bk11: 878a 1228131i bk12: 914a 1228372i bk13: 923a 1228320i bk14: 918a 1227771i bk15: 950a 1227664i 

------------------------------------------------------------------------

Row_Buffer_Locality = 0.892343
Row_Buffer_Locality_read = 0.892808
Row_Buffer_Locality_write = 0.125000
Bank_Level_Parallism = 1.087365
Bank_Level_Parallism_Col = 1.065753
Bank_Level_Parallism_Ready = 1.022841
write_to_read_ratio_blp_rw_average = 0.004390
GrpLevelPara = 1.051993 

BW Util details:
bwutil = 0.021451 
total_CMD = 1230522 
util_bw = 26396 
Wasted_Col = 17353 
Wasted_Row = 15031 
Idle = 1171742 

BW Util Bottlenecks: 
RCDc_limit = 15898 
RCDWRc_limit = 46 
WTRc_limit = 9 
RTWc_limit = 70 
CCDLc_limit = 1852 
rwq = 0 
CCDLc_limit_alone = 1851 
WTRc_limit_alone = 9 
RTWc_limit_alone = 69 

Commands details: 
total_CMD = 1230522 
n_nop = 1214505 
Read = 13182 
Write = 0 
L2_Alloc = 0 
L2_WB = 16 
n_act = 1420 
n_pre = 1404 
n_ref = 0 
n_req = 13190 
total_req = 13198 

Dual Bus Interface Util: 
issued_total_row = 2824 
issued_total_col = 13198 
Row_Bus_Util =  0.002295 
CoL_Bus_Util = 0.010726 
Either_Row_CoL_Bus_Util = 0.013016 
Issued_on_Two_Bus_Simul_Util = 0.000004 
issued_two_Eff = 0.000312 
queue_avg = 0.024577 


dram_util_bins: 0 0 0 0 0 0 0 0 0 0
dram_eff_bins: 0 0 0 0 0 0 0 0 0 0
mrqq: max=9 avg=0.0245766
Memory Partition 4: 
Cache L2_bank_008:
MSHR contents

Cache L2_bank_009:
MSHR contents

In Dram Latency Queue (total = 0): 
DRAM[4]: 16 bks, busW=4 BL=8 CL=12, tRRD=6 tCCD=2, tRCD=12 tRAS=28 tRP=12 tRC=40
n_cmd=1230522 n_nop=1214272 n_act=1482 n_pre=1466 n_ref_event=0 n_req=13298 n_rd=13288 n_rd_L2_A=0 n_write=0 n_wr_bk=20 bw_util=0.02163
n_activity=132260 dram_eff=0.2012
bk0: 765a 1227749i bk1: 771a 1227977i bk2: 761a 1227996i bk3: 787a 1227337i bk4: 787a 1227353i bk5: 805a 1227331i bk6: 758a 1227784i bk7: 761a 1227745i bk8: 759a 1227801i bk9: 786a 1227573i bk10: 847a 1227732i bk11: 898a 1228762i bk12: 956a 1228154i bk13: 955a 1227944i bk14: 940a 1227876i bk15: 952a 1227917i 

------------------------------------------------------------------------

Row_Buffer_Locality = 0.888555
Row_Buffer_Locality_read = 0.889223
Row_Buffer_Locality_write = 0.000000
Bank_Level_Parallism = 1.091818
Bank_Level_Parallism_Col = 1.068308
Bank_Level_Parallism_Ready = 1.021981
write_to_read_ratio_blp_rw_average = 0.004797
GrpLevelPara = 1.055485 

BW Util details:
bwutil = 0.021630 
total_CMD = 1230522 
util_bw = 26616 
Wasted_Col = 18128 
Wasted_Row = 15557 
Idle = 1170221 

BW Util Bottlenecks: 
RCDc_limit = 16559 
RCDWRc_limit = 54 
WTRc_limit = 34 
RTWc_limit = 99 
CCDLc_limit = 1967 
rwq = 0 
CCDLc_limit_alone = 1965 
WTRc_limit_alone = 34 
RTWc_limit_alone = 97 

Commands details: 
total_CMD = 1230522 
n_nop = 1214272 
Read = 13288 
Write = 0 
L2_Alloc = 0 
L2_WB = 20 
n_act = 1482 
n_pre = 1466 
n_ref = 0 
n_req = 13298 
total_req = 13308 

Dual Bus Interface Util: 
issued_total_row = 2948 
issued_total_col = 13308 
Row_Bus_Util =  0.002396 
CoL_Bus_Util = 0.010815 
Either_Row_CoL_Bus_Util = 0.013206 
Issued_on_Two_Bus_Simul_Util = 0.000005 
issued_two_Eff = 0.000369 
queue_avg = 0.025717 


dram_util_bins: 0 0 0 0 0 0 0 0 0 0
dram_eff_bins: 0 0 0 0 0 0 0 0 0 0
mrqq: max=10 avg=0.0257167
Memory Partition 5: 
Cache L2_bank_010:
MSHR contents

Cache L2_bank_011:
MSHR contents

In Dram Latency Queue (total = 0): 
DRAM[5]: 16 bks, busW=4 BL=8 CL=12, tRRD=6 tCCD=2, tRCD=12 tRAS=28 tRP=12 tRC=40
n_cmd=1230522 n_nop=1214498 n_act=1450 n_pre=1434 n_ref_event=0 n_req=13137 n_rd=13124 n_rd_L2_A=0 n_write=0 n_wr_bk=26 bw_util=0.02137
n_activity=130921 dram_eff=0.2009
bk0: 752a 1228197i bk1: 767a 1227882i bk2: 761a 1227989i bk3: 747a 1227866i bk4: 799a 1227385i bk5: 773a 1227269i bk6: 735a 1228284i bk7: 755a 1228052i bk8: 794a 1227751i bk9: 789a 1227576i bk10: 876a 1228244i bk11: 854a 1228166i bk12: 890a 1227880i bk13: 932a 1228224i bk14: 924a 1227668i bk15: 976a 1227751i 

------------------------------------------------------------------------

Row_Buffer_Locality = 0.889625
Row_Buffer_Locality_read = 0.890430
Row_Buffer_Locality_write = 0.076923
Bank_Level_Parallism = 1.074965
Bank_Level_Parallism_Col = 1.057657
Bank_Level_Parallism_Ready = 1.023090
write_to_read_ratio_blp_rw_average = 0.005982
GrpLevelPara = 1.044349 

BW Util details:
bwutil = 0.021373 
total_CMD = 1230522 
util_bw = 26300 
Wasted_Col = 17985 
Wasted_Row = 15564 
Idle = 1170673 

BW Util Bottlenecks: 
RCDc_limit = 16276 
RCDWRc_limit = 79 
WTRc_limit = 10 
RTWc_limit = 89 
CCDLc_limit = 1987 
rwq = 0 
CCDLc_limit_alone = 1987 
WTRc_limit_alone = 10 
RTWc_limit_alone = 89 

Commands details: 
total_CMD = 1230522 
n_nop = 1214498 
Read = 13124 
Write = 0 
L2_Alloc = 0 
L2_WB = 26 
n_act = 1450 
n_pre = 1434 
n_ref = 0 
n_req = 13137 
total_req = 13150 

Dual Bus Interface Util: 
issued_total_row = 2884 
issued_total_col = 13150 
Row_Bus_Util =  0.002344 
CoL_Bus_Util = 0.010687 
Either_Row_CoL_Bus_Util = 0.013022 
Issued_on_Two_Bus_Simul_Util = 0.000008 
issued_two_Eff = 0.000624 
queue_avg = 0.024941 


dram_util_bins: 0 0 0 0 0 0 0 0 0 0
dram_eff_bins: 0 0 0 0 0 0 0 0 0 0
mrqq: max=9 avg=0.0249414

========= L2 cache stats =========
L2_cache_bank[0]: Access = 183206, Miss = 23240, Miss_rate = 0.127, Pending_hits = 1378, Reservation_fails = 0
L2_cache_bank[1]: Access = 227331, Miss = 27281, Miss_rate = 0.120, Pending_hits = 2174, Reservation_fails = 12
L2_cache_bank[2]: Access = 183874, Miss = 23895, Miss_rate = 0.130, Pending_hits = 1503, Reservation_fails = 0
L2_cache_bank[3]: Access = 182132, Miss = 25843, Miss_rate = 0.142, Pending_hits = 1637, Reservation_fails = 0
L2_cache_bank[4]: Access = 93637, Miss = 7074, Miss_rate = 0.076, Pending_hits = 8, Reservation_fails = 0
L2_cache_bank[5]: Access = 89283, Miss = 7195, Miss_rate = 0.081, Pending_hits = 8, Reservation_fails = 0
L2_cache_bank[6]: Access = 93156, Miss = 7020, Miss_rate = 0.075, Pending_hits = 13, Reservation_fails = 0
L2_cache_bank[7]: Access = 89529, Miss = 7176, Miss_rate = 0.080, Pending_hits = 8, Reservation_fails = 0
L2_cache_bank[8]: Access = 91269, Miss = 7064, Miss_rate = 0.077, Pending_hits = 9, Reservation_fails = 0
L2_cache_bank[9]: Access = 90627, Miss = 7258, Miss_rate = 0.080, Pending_hits = 13, Reservation_fails = 0
L2_cache_bank[10]: Access = 90533, Miss = 7005, Miss_rate = 0.077, Pending_hits = 16, Reservation_fails = 0
L2_cache_bank[11]: Access = 91090, Miss = 7150, Miss_rate = 0.078, Pending_hits = 12, Reservation_fails = 0
L2_total_cache_accesses = 1505667
L2_total_cache_misses = 157201
L2_total_cache_miss_rate = 0.1044
L2_total_cache_pending_hits = 6779
L2_total_cache_reservation_fails = 12
L2_total_cache_breakdown:
	L2_cache_stats_breakdown[GLOBAL_ACC_R][HIT] = 1014573
	L2_cache_stats_breakdown[GLOBAL_ACC_R][HIT_RESERVED] = 6701
	L2_cache_stats_breakdown[GLOBAL_ACC_R][MISS] = 46921
	L2_cache_stats_breakdown[GLOBAL_ACC_R][RESERVATION_FAIL] = 12
	L2_cache_stats_breakdown[GLOBAL_ACC_R][SECTOR_MISS] = 93878
	L2_cache_stats_breakdown[GLOBAL_ACC_R][MSHR_HIT] = 6701
	L2_cache_stats_breakdown[LOCAL_ACC_R][HIT] = 0
	L2_cache_stats_breakdown[LOCAL_ACC_R][HIT_RESERVED] = 0
	L2_cache_stats_breakdown[LOCAL_ACC_R][MISS] = 0
	L2_cache_stats_breakdown[LOCAL_ACC_R][RESERVATION_FAIL] = 0
	L2_cache_stats_breakdown[LOCAL_ACC_R][SECTOR_MISS] = 0
	L2_cache_stats_breakdown[LOCAL_ACC_R][MSHR_HIT] = 0
	L2_cache_stats_breakdown[CONST_ACC_R][HIT] = 0
	L2_cache_stats_breakdown[CONST_ACC_R][HIT_RESERVED] = 0
	L2_cache_stats_breakdown[CONST_ACC_R][MISS] = 0
	L2_cache_stats_breakdown[CONST_ACC_R][RESERVATION_FAIL] = 0
	L2_cache_stats_breakdown[CONST_ACC_R][SECTOR_MISS] = 0
	L2_cache_stats_breakdown[CONST_ACC_R][MSHR_HIT] = 0
	L2_cache_stats_breakdown[TEXTURE_ACC_R][HIT] = 0
	L2_cache_stats_breakdown[TEXTURE_ACC_R][HIT_RESERVED] = 0
	L2_cache_stats_breakdown[TEXTURE_ACC_R][MISS] = 0
	L2_cache_stats_breakdown[TEXTURE_ACC_R][RESERVATION_FAIL] = 0
	L2_cache_stats_breakdown[TEXTURE_ACC_R][SECTOR_MISS] = 0
	L2_cache_stats_breakdown[TEXTURE_ACC_R][MSHR_HIT] = 0
	L2_cache_stats_breakdown[GLOBAL_ACC_W][HIT] = 327114
	L2_cache_stats_breakdown[GLOBAL_ACC_W][HIT_RESERVED] = 78
	L2_cache_stats_breakdown[GLOBAL_ACC_W][MISS] = 5220
	L2_cache_stats_breakdown[GLOBAL_ACC_W][RESERVATION_FAIL] = 0
	L2_cache_stats_breakdown[GLOBAL_ACC_W][SECTOR_MISS] = 11182
	L2_cache_stats_breakdown[GLOBAL_ACC_W][MSHR_HIT] = 0
	L2_cache_stats_breakdown[LOCAL_ACC_W][HIT] = 0
	L2_cache_stats_breakdown[LOCAL_ACC_W][HIT_RESERVED] = 0
	L2_cache_stats_breakdown[LOCAL_ACC_W][MISS] = 0
	L2_cache_stats_breakdown[LOCAL_ACC_W][RESERVATION_FAIL] = 0
	L2_cache_stats_breakdown[LOCAL_ACC_W][SECTOR_MISS] = 0
	L2_cache_stats_breakdown[LOCAL_ACC_W][MSHR_HIT] = 0
	L2_cache_stats_breakdown[L1_WRBK_ACC][HIT] = 0
	L2_cache_stats_breakdown[L1_WRBK_ACC][HIT_RESERVED] = 0
	L2_cache_stats_breakdown[L1_WRBK_ACC][MISS] = 0
	L2_cache_stats_breakdown[L1_WRBK_ACC][RESERVATION_FAIL] = 0
	L2_cache_stats_breakdown[L1_WRBK_ACC][SECTOR_MISS] = 0
	L2_cache_stats_breakdown[L1_WRBK_ACC][MSHR_HIT] = 0
	L2_cache_stats_breakdown[L2_WRBK_ACC][HIT] = 0
	L2_cache_stats_breakdown[L2_WRBK_ACC][HIT_RESERVED] = 0
	L2_cache_stats_breakdown[L2_WRBK_ACC][MISS] = 0
	L2_cache_stats_breakdown[L2_WRBK_ACC][RESERVATION_FAIL] = 0
	L2_cache_stats_breakdown[L2_WRBK_ACC][SECTOR_MISS] = 0
	L2_cache_stats_breakdown[L2_WRBK_ACC][MSHR_HIT] = 0
	L2_cache_stats_breakdown[INST_ACC_R][HIT] = 0
	L2_cache_stats_breakdown[INST_ACC_R][HIT_RESERVED] = 0
	L2_cache_stats_breakdown[INST_ACC_R][MISS] = 0
	L2_cache_stats_breakdown[INST_ACC_R][RESERVATION_FAIL] = 0
	L2_cache_stats_breakdown[INST_ACC_R][SECTOR_MISS] = 0
	L2_cache_stats_breakdown[INST_ACC_R][MSHR_HIT] = 0
	L2_cache_stats_breakdown[L1_WR_ALLOC_R][HIT] = 0
	L2_cache_stats_breakdown[L1_WR_ALLOC_R][HIT_RESERVED] = 0
	L2_cache_stats_breakdown[L1_WR_ALLOC_R][MISS] = 0
	L2_cache_stats_breakdown[L1_WR_ALLOC_R][RESERVATION_FAIL] = 0
	L2_cache_stats_breakdown[L1_WR_ALLOC_R][SECTOR_MISS] = 0
	L2_cache_stats_breakdown[L1_WR_ALLOC_R][MSHR_HIT] = 0
	L2_cache_stats_breakdown[L2_WR_ALLOC_R][HIT] = 0
	L2_cache_stats_breakdown[L2_WR_ALLOC_R][HIT_RESERVED] = 0
	L2_cache_stats_breakdown[L2_WR_ALLOC_R][MISS] = 0
	L2_cache_stats_breakdown[L2_WR_ALLOC_R][RESERVATION_FAIL] = 0
	L2_cache_stats_breakdown[L2_WR_ALLOC_R][SECTOR_MISS] = 0
	L2_cache_stats_breakdown[L2_WR_ALLOC_R][MSHR_HIT] = 0
	L2_cache_stats_breakdown[GLOBAL_ACC_R][TOTAL_ACCESS] = 1162073
	L2_cache_stats_breakdown[GLOBAL_ACC_W][TOTAL_ACCESS] = 343594
L2_total_cache_reservation_fail_breakdown:
	L2_cache_stats_fail_breakdown[GLOBAL_ACC_R][MSHR_MERGE_ENRTY_FAIL] = 12
L2_cache_data_port_util = 0.281
L2_cache_fill_port_util = 0.029

icnt_total_pkts_mem_to_simt=1505667
icnt_total_pkts_simt_to_mem=1505667
LD_mem_lat_dist  0 0 0 0 0 0 0 0 0 0 0 0 0 0 0 0 0 0 0 0 0 0 0 0 0 0 0
ST_mem_lat_dist  0 0 0 0 0 0 0 0 0 0 0 0 0 0 0 0 0 0 0 0 0 0 0 0 0 0 0
----------------------------Interconnect-DETAILS--------------------------------
Req_Network_injected_packets_num = 1505667
Req_Network_cycles = 397930
Req_Network_injected_packets_per_cycle =       3.7837 
Req_Network_conflicts_per_cycle =       4.8427
Req_Network_conflicts_per_cycle_util =       6.1993
Req_Bank_Level_Parallism =       4.8437
Req_Network_in_buffer_full_per_cycle =       0.0930
Req_Network_in_buffer_avg_util =      84.9406
Req_Network_out_buffer_full_per_cycle =       0.0629
Req_Network_out_buffer_avg_util =      20.6980

Reply_Network_injected_packets_num = 1505667
Reply_Network_cycles = 397930
Reply_Network_injected_packets_per_cycle =        3.7837
Reply_Network_conflicts_per_cycle =        1.2576
Reply_Network_conflicts_per_cycle_util =       1.6089
Reply_Bank_Level_Parallism =       4.8405
Reply_Network_in_buffer_full_per_cycle =       0.1454
Reply_Network_in_buffer_avg_util =      32.6995
Reply_Network_out_buffer_full_per_cycle =       0.0000
Reply_Network_out_buffer_avg_util =       0.2522
----------------------------END-of-Interconnect-DETAILS-------------------------


gpgpu_simulation_time = 0 days, 0 hrs, 0 min, 43 sec (43 sec)
gpgpu_simulation_rate = 373543 (inst/sec)
gpgpu_simulation_rate = 9254 (cycle/sec)
gpgpu_silicon_slowdown = 122325x
GPGPU-Sim: *** simulation thread exiting ***
GPGPU-Sim: *** exit detected ***
