Accel-Sim [build accelsim-commit-9be0e3c_modified_0.0_26-05-01-16-54-20]

        *** GPGPU-Sim Simulator Version 4.2.0  [build gpgpu-sim_git-commit-6c3cf4ff_modified_0.0] ***


GPGPU-Sim: Configuration options:

-save_embedded_ptx                      0 # saves ptx files embedded in binary as <n>.ptx
-keep                                   0 # keep intermediate files created by GPGPU-Sim when interfacing with external programs
-gpgpu_ptx_save_converted_ptxplus                    0 # Saved converted ptxplus to a file
-gpgpu_occupancy_sm_number                   86 # The SM number to pass to ptxas when getting register usage for computing GPU occupancy. This parameter is required in the config.
-ptx_opcode_latency_int           4,4,4,4,21 # Opcode latencies for integers <ADD,MAX,MUL,MAD,DIV,SHFL>Default 1,1,19,25,145,32
-ptx_opcode_latency_fp           4,4,4,4,39 # Opcode latencies for single precision floating points <ADD,MAX,MUL,MAD,DIV>Default 1,1,1,1,30
-ptx_opcode_latency_dp      64,64,64,64,330 # Opcode latencies for double precision floating points <ADD,MAX,MUL,MAD,DIV>Default 8,8,8,8,335
-ptx_opcode_latency_sfu                   21 # Opcode latencies for SFU instructionsDefault 8
-ptx_opcode_latency_tesnor                   64 # Opcode latencies for Tensor instructionsDefault 64
-ptx_opcode_initiation_int            2,2,2,2,2 # Opcode initiation intervals for integers <ADD,MAX,MUL,MAD,DIV,SHFL>Default 1,1,4,4,32,4
-ptx_opcode_initiation_fp            1,1,1,1,2 # Opcode initiation intervals for single precision floating points <ADD,MAX,MUL,MAD,DIV>Default 1,1,1,1,5
-ptx_opcode_initiation_dp      64,64,64,64,130 # Opcode initiation intervals for double precision floating points <ADD,MAX,MUL,MAD,DIV>Default 8,8,8,8,130
-ptx_opcode_initiation_sfu                    8 # Opcode initiation intervals for sfu instructionsDefault 8
-ptx_opcode_initiation_tensor                   64 # Opcode initiation intervals for tensor instructionsDefault 64
-cdp_latency         7200,8000,100,12000,1600 # CDP API latency <cudaStreamCreateWithFlags, cudaGetParameterBufferV2_init_perWarp, cudaGetParameterBufferV2_perKernel, cudaLaunchDeviceV2_init_perWarp, cudaLaunchDevicV2_perKernel>Default 7200,8000,100,12000,1600
-network_mode                           2 # Interconnection network mode
-inter_config_file                   mesh # Interconnection network config file
-icnt_in_buffer_limit                  512 # in_buffer_limit
-icnt_out_buffer_limit                  512 # out_buffer_limit
-icnt_subnets                           2 # subnets
-icnt_arbiter_algo                      1 # arbiter_algo
-icnt_verbose                           0 # inct_verbose
-icnt_grant_cycles                      1 # grant_cycles
-gpgpu_ptx_use_cuobjdump                    1 # Use cuobjdump to extract ptx and sass from binaries
-gpgpu_experimental_lib_support                    0 # Try to extract code from cuda libraries [Broken because of unknown cudaGetExportTable]
-checkpoint_option                      0 #  checkpointing flag (0 = no checkpoint)
-checkpoint_kernel                      1 #  checkpointing during execution of which kernel (1- 1st kernel)
-checkpoint_CTA                         0 #  checkpointing after # of CTA (< less than total CTA)
-resume_option                          0 #  resume flag (0 = no resume)
-resume_kernel                          0 #  Resume from which kernel (1= 1st kernel)
-resume_CTA                             0 #  resume from which CTA 
-checkpoint_CTA_t                       0 #  resume from which CTA 
-checkpoint_insn_Y                      0 #  resume from which CTA 
-gpgpu_ptx_convert_to_ptxplus                    0 # Convert SASS (native ISA) to ptxplus and run ptxplus
-gpgpu_ptx_force_max_capability                   86 # Force maximum compute capability
-gpgpu_ptx_inst_debug_to_file                    0 # Dump executed instructions' debug information to file
-gpgpu_ptx_inst_debug_file       inst_debug.txt # Executed instructions' debug output file
-gpgpu_ptx_inst_debug_thread_uid                    1 # Thread UID for executed instructions' debug output
-gpgpu_simd_model                       1 # 1 = post-dominator
-gpgpu_shader_core_pipeline              1536:32 # shader core pipeline config, i.e., {<nthread>:<warpsize>}
-gpgpu_tex_cache:l1  N:4:128:256,L:R:m:N:L,T:512:8,128:2 # per-shader L1 texture cache  (READ-ONLY) config  {<nsets>:<bsize>:<assoc>,<rep>:<wr>:<alloc>:<wr_alloc>,<mshr>:<N>:<merge>,<mq>:<rf>}
-gpgpu_const_cache:l1 N:128:64:8,L:R:f:N:L,S:2:64,4 # per-shader L1 constant memory cache  (READ-ONLY) config  {<nsets>:<bsize>:<assoc>,<rep>:<wr>:<alloc>:<wr_alloc>,<mshr>:<N>:<merge>,<mq>} 
-gpgpu_cache:il1     N:64:128:16,L:R:f:N:L,S:2:48,4 # shader L1 instruction cache config  {<sector?>:<nsets>:<bsize>:<assoc>,<rep>:<wr>:<alloc>:<wr_alloc>:<set_index_fn>,<mshr>:<N>:<merge>,<mq>} 
-gpgpu_cache:dl1     N:32:128:4,L:L:m:N:H,S:64:8,8 # per-shader L1 data cache config  {<sector?>:<nsets>:<bsize>:<assoc>,<rep>:<wr>:<alloc>:<wr_alloc>:<set_index_fn>,<mshr>:<N>:<merge>,<mq>:<fifo_entry>,<data_port_width> | none}
-gpgpu_l1_cache_write_ratio                    0 # L1D write ratio
-gpgpu_l1_banks                         1 # The number of L1 cache banks
-gpgpu_l1_banks_byte_interleaving                   32 # l1 banks byte interleaving granularity
-gpgpu_l1_banks_hashing_function                    0 # l1 banks hashing function
-gpgpu_l1_latency                      35 # L1 Hit Latency
-gpgpu_smem_latency                    29 # smem Latency
-gpgpu_cache:dl1PrefL1                 none # per-shader L1 data cache config  {<sector?>:<nsets>:<bsize>:<assoc>,<rep>:<wr>:<alloc>:<wr_alloc>:<set_index_fn>,<mshr>:<N>:<merge>,<mq>:<fifo_entry>,<data_port_width> | none}
-gpgpu_cache:dl1PrefShared                 none # per-shader L1 data cache config  {<sector?>:<nsets>:<bsize>:<assoc>,<rep>:<wr>:<alloc>:<wr_alloc>:<set_index_fn>,<mshr>:<N>:<merge>,<mq>:<fifo_entry>,<data_port_width> | none}
-gpgpu_gmem_skip_L1D                    0 # global memory access skip L1D cache (implements -Xptxas -dlcm=cg, default=no skip)
-gpgpu_perfect_mem                      0 # enable perfect memory mode (no cache miss)
-n_regfile_gating_group                    4 # group of lanes that should be read/written together)
-gpgpu_clock_gated_reg_file                    0 # enable clock gated reg file for power calculations
-gpgpu_clock_gated_lanes                    0 # enable clock gated lanes for power calculations
-gpgpu_shader_registers                65536 # Number of registers per shader core. Limits number of concurrent CTAs. (default 8192)
-gpgpu_registers_per_block                65536 # Maximum number of registers per CTA. (default 8192)
-gpgpu_ignore_resources_limitation                    0 # gpgpu_ignore_resources_limitation (default 0)
-gpgpu_shader_cta                       8 # Maximum number of concurrent CTAs in shader (default 32)
-gpgpu_num_cta_barriers                   16 # Maximum number of named barriers per CTA (default 16)
-gpgpu_n_clusters                      15 # number of processing clusters
-gpgpu_n_cores_per_cluster                    1 # number of simd cores per cluster
-gpgpu_n_cluster_ejection_buffer_size                   32 # number of packets in ejection buffer
-gpgpu_n_ldst_response_buffer_size                    2 # number of response packets in ld/st unit ejection buffer
-gpgpu_shmem_per_block                49152 # Size of shared memory per thread block or CTA (default 48kB)
-gpgpu_shmem_size                  102400 # Size of shared memory per shader core (default 16kB)
-gpgpu_shmem_option                     0 # Option list of shared memory sizes
-gpgpu_unified_l1d_size                    0 # Size of unified data cache(L1D + shared memory) in KB
-gpgpu_adaptive_cache_config                    0 # adaptive_cache_config
-gpgpu_shmem_sizeDefault               102400 # Size of shared memory per shader core (default 16kB)
-gpgpu_shmem_size_PrefL1                16384 # Size of shared memory per shader core (default 16kB)
-gpgpu_shmem_size_PrefShared                16384 # Size of shared memory per shader core (default 16kB)
-gpgpu_shmem_num_banks                   32 # Number of banks in the shared memory in each shader core (default 16)
-gpgpu_shmem_limited_broadcast                    0 # Limit shared memory to do one broadcast per cycle (default on)
-gpgpu_shmem_warp_parts                    1 # Number of portions a warp is divided into for shared memory bank conflict check 
-gpgpu_mem_unit_ports                    1 # The number of memory transactions allowed per core cycle
-gpgpu_shmem_warp_parts                    1 # Number of portions a warp is divided into for shared memory bank conflict check 
-gpgpu_warpdistro_shader                   -1 # Specify which shader core to collect the warp size distribution from
-gpgpu_warp_issue_shader                    0 # Specify which shader core to collect the warp issue distribution from
-gpgpu_local_mem_map                    1 # Mapping from local memory space address to simulated GPU physical address space (default = enabled)
-gpgpu_num_reg_banks                    8 # Number of register banks (default = 8)
-gpgpu_reg_bank_use_warp_id                    0 # Use warp ID in mapping registers to banks (default = off)
-gpgpu_sub_core_model                    1 # Sub Core Volta/Pascal model (default = off)
-gpgpu_enable_specialized_operand_collector                    0 # enable_specialized_operand_collector
-gpgpu_operand_collector_num_units_sp                    4 # number of collector units (default = 4)
-gpgpu_operand_collector_num_units_dp                    0 # number of collector units (default = 0)
-gpgpu_operand_collector_num_units_sfu                    4 # number of collector units (default = 4)
-gpgpu_operand_collector_num_units_int                    0 # number of collector units (default = 0)
-gpgpu_operand_collector_num_units_tensor_core                    4 # number of collector units (default = 4)
-gpgpu_operand_collector_num_units_mem                    2 # number of collector units (default = 2)
-gpgpu_operand_collector_num_units_gen                    8 # number of collector units (default = 0)
-gpgpu_operand_collector_num_in_ports_sp                    1 # number of collector unit in ports (default = 1)
-gpgpu_operand_collector_num_in_ports_dp                    0 # number of collector unit in ports (default = 0)
-gpgpu_operand_collector_num_in_ports_sfu                    1 # number of collector unit in ports (default = 1)
-gpgpu_operand_collector_num_in_ports_int                    0 # number of collector unit in ports (default = 0)
-gpgpu_operand_collector_num_in_ports_tensor_core                    1 # number of collector unit in ports (default = 1)
-gpgpu_operand_collector_num_in_ports_mem                    1 # number of collector unit in ports (default = 1)
-gpgpu_operand_collector_num_in_ports_gen                    8 # number of collector unit in ports (default = 0)
-gpgpu_operand_collector_num_out_ports_sp                    1 # number of collector unit in ports (default = 1)
-gpgpu_operand_collector_num_out_ports_dp                    0 # number of collector unit in ports (default = 0)
-gpgpu_operand_collector_num_out_ports_sfu                    1 # number of collector unit in ports (default = 1)
-gpgpu_operand_collector_num_out_ports_int                    0 # number of collector unit in ports (default = 0)
-gpgpu_operand_collector_num_out_ports_tensor_core                    1 # number of collector unit in ports (default = 1)
-gpgpu_operand_collector_num_out_ports_mem                    1 # number of collector unit in ports (default = 1)
-gpgpu_operand_collector_num_out_ports_gen                    8 # number of collector unit in ports (default = 0)
-gpgpu_coalesce_arch                   86 # Coalescing arch (GT200 = 13, Fermi = 20)
-gpgpu_num_sched_per_core                    4 # Number of warp schedulers per core
-gpgpu_max_insn_issue_per_warp                    1 # Max number of instructions that can be issued per warp in one cycle by scheduler (either 1 or 2)
-gpgpu_dual_issue_diff_exec_units                    1 # should dual issue use two different execution unit resources (Default = 1)
-gpgpu_simt_core_sim_order                    1 # Select the simulation order of cores in a cluster (0=Fix, 1=Round-Robin)
-gpgpu_pipeline_widths 4,4,4,4,4,4,4,4,4,4,8,4,4 # Pipeline widths ID_OC_SP,ID_OC_DP,ID_OC_INT,ID_OC_SFU,ID_OC_MEM,OC_EX_SP,OC_EX_DP,OC_EX_INT,OC_EX_SFU,OC_EX_MEM,EX_WB,ID_OC_TENSOR_CORE,OC_EX_TENSOR_CORE
-gpgpu_tensor_core_avail                    1 # Tensor Core Available (default=0)
-gpgpu_num_sp_units                     4 # Number of SP units (default=1)
-gpgpu_num_dp_units                     4 # Number of DP units (default=0)
-gpgpu_num_int_units                    4 # Number of INT units (default=0)
-gpgpu_num_sfu_units                    4 # Number of SF units (default=1)
-gpgpu_num_tensor_core_units                    4 # Number of tensor_core units (default=1)
-gpgpu_num_mem_units                    1 # Number if ldst units (default=1) WARNING: not hooked up to anything
-gpgpu_scheduler                      lrr # Scheduler configuration: < lrr | gto | two_level_active > If two_level_active:<num_active_warps>:<inner_prioritization>:<outer_prioritization>For complete list of prioritization values see shader.h enum scheduler_prioritization_typeDefault: gto
-gpgpu_concurrent_kernel_sm                    0 # Support concurrent kernels on a SM (default = disabled)
-gpgpu_perfect_inst_const_cache                    1 # perfect inst and const cache mode, so all inst and const hits in the cache(default = disabled)
-gpgpu_inst_fetch_throughput                    4 # the number of fetched intruction per warp each cycle
-gpgpu_reg_file_port_throughput                    2 # the number ports of the register file
-specialized_unit_1         1,4,4,4,4,BRA # specialized unit config {<enabled>,<num_units>:<latency>:<initiation>,<ID_OC_SPEC>:<OC_EX_SPEC>,<NAME>}
-specialized_unit_2       1,4,200,4,4,TEX # specialized unit config {<enabled>,<num_units>:<latency>:<initiation>,<ID_OC_SPEC>:<OC_EX_SPEC>,<NAME>}
-specialized_unit_3     1,4,32,4,4,TENSOR # specialized unit config {<enabled>,<num_units>:<latency>:<initiation>,<ID_OC_SPEC>:<OC_EX_SPEC>,<NAME>}
-specialized_unit_4         1,4,4,4,4,UDP # specialized unit config {<enabled>,<num_units>:<latency>:<initiation>,<ID_OC_SPEC>:<OC_EX_SPEC>,<NAME>}
-specialized_unit_5         0,4,4,4,4,BRA # specialized unit config {<enabled>,<num_units>:<latency>:<initiation>,<ID_OC_SPEC>:<OC_EX_SPEC>,<NAME>}
-specialized_unit_6         0,4,4,4,4,BRA # specialized unit config {<enabled>,<num_units>:<latency>:<initiation>,<ID_OC_SPEC>:<OC_EX_SPEC>,<NAME>}
-specialized_unit_7         0,4,4,4,4,BRA # specialized unit config {<enabled>,<num_units>:<latency>:<initiation>,<ID_OC_SPEC>:<OC_EX_SPEC>,<NAME>}
-specialized_unit_8         0,4,4,4,4,BRA # specialized unit config {<enabled>,<num_units>:<latency>:<initiation>,<ID_OC_SPEC>:<OC_EX_SPEC>,<NAME>}
-gpgpu_perf_sim_memcpy                    1 # Fill the L2 cache on memcpy
-gpgpu_simple_dram_model                    0 # simple_dram_model with fixed latency and BW
-gpgpu_dram_scheduler                    1 # 0 = fifo, 1 = FR-FCFS (defaul)
-gpgpu_dram_partition_queues          64:64:64:64 # i2$:$2d:d2$:$2i
-l2_ideal                               0 # Use a ideal L2 cache that always hit
-gpgpu_cache:dl2     S:64:128:16,L:B:m:L:P,A:192:4,32:0,32 # unified banked L2 data cache config  {<sector?>:<nsets>:<bsize>:<assoc>,<rep>:<wr>:<alloc>:<wr_alloc>:<set_index_fn>,<mshr>:<N>:<merge>,<mq>:<fifo_entry>,<data_port_width>
-gpgpu_cache:dl2_texture_only                    0 # L2 cache used for texture only
-gpgpu_n_mem                            6 # number of memory modules (e.g. memory controllers) in gpu
-gpgpu_n_sub_partition_per_mchannel                    2 # number of memory subpartition in each memory module
-gpgpu_n_mem_per_ctrlr                    2 # number of memory chips per memory controller
-gpgpu_memlatency_stat                   14 # track and display latency statistics 0x2 enables MC, 0x4 enables queue logs
-gpgpu_frfcfs_dram_sched_queue_size                   64 # 0 = unlimited (default); # entries per chip
-gpgpu_dram_return_queue_size                  116 # 0 = unlimited (default); # entries per chip
-gpgpu_dram_buswidth                    4 # default = 4 bytes (8 bytes per cycle at DDR)
-gpgpu_dram_burst_length                    8 # Burst length of each DRAM request (default = 4 data bus cycle)
-dram_data_command_freq_ratio                    4 # Frequency ratio between DRAM data bus and command bus (default = 2 times, i.e. DDR)
-gpgpu_dram_timing_opt nbk=16:CCD=2:RRD=6:RCD=12:RAS=28:RP=12:RC=40: CL=12:WL=4:CDLR=5:WR=12:nbkgrp=4:CCDL=3:RTPL=2 # DRAM timing parameters = {nbk:tCCD:tRRD:tRCD:tRAS:tRP:tRC:CL:WL:tCDLR:tWR:nbkgrp:tCCDL:tRTPL}
-gpgpu_l2_rop_latency                  120 # ROP queue latency (default 85)
-dram_latency                         100 # DRAM latency (default 30)
-dram_dual_bus_interface                    0 # dual_bus_interface (default = 0) 
-dram_bnk_indexing_policy                    0 # dram_bnk_indexing_policy (0 = normal indexing, 1 = Xoring with the higher bits) (Default = 0)
-dram_bnkgrp_indexing_policy                    1 # dram_bnkgrp_indexing_policy (0 = take higher bits, 1 = take lower bits) (Default = 0)
-dram_seperate_write_queue_enable                    0 # Seperate_Write_Queue_Enable
-dram_write_queue_size             32:28:16 # Write_Queue_Size
-dram_elimnate_rw_turnaround                    0 # elimnate_rw_turnaround i.e set tWTR and tRTW = 0
-icnt_flit_size                        40 # icnt_flit_size
-SST_mode                               0 # SST mode
-gpgpu_mem_addr_mapping dramid@8;00000000.00000000.00000000.00000000.0000RRRR.RRRRRRRR.BBBCCCCB.CCSSSSSS # mapping memory address to dram model {dramid@<start bit>;<memory address map>}
-gpgpu_mem_addr_test                    0 # run sweep test to check address mapping for aliased address
-gpgpu_mem_address_mask                    1 # 0 = old addressing mask, 1 = new addressing mask, 2 = new add. mask + flipped bank sel and chip sel bits
-gpgpu_memory_partition_indexing                    2 # 0 = no indexing, 1 = bitwise xoring, 2 = IPoly, 3 = custom indexing
-accelwattch_xml_file accelwattch_sass_sim.xml # AccelWattch XML file
-power_simulation_enabled                    0 # Turn on power simulator (1=On, 0=Off)
-power_per_cycle_dump                    0 # Dump detailed power output each cycle
-hw_perf_file_name            hw_perf.csv # Hardware Performance Statistics file
-hw_perf_bench_name                       # Kernel Name in Hardware Performance Statistics file
-power_simulation_mode                    0 # Switch performance counter input for power simulation (0=Sim, 1=HW, 2=HW-Sim Hybrid)
-dvfs_enabled                           0 # Turn on DVFS for power model
-aggregate_power_stats                    0 # Accumulate power across all kernels
-accelwattch_hybrid_perfsim_L1_RH                    0 # Get L1 Read Hits for Accelwattch-Hybrid from Accel-Sim
-accelwattch_hybrid_perfsim_L1_RM                    0 # Get L1 Read Misses for Accelwattch-Hybrid from Accel-Sim
-accelwattch_hybrid_perfsim_L1_WH                    0 # Get L1 Write Hits for Accelwattch-Hybrid from Accel-Sim
-accelwattch_hybrid_perfsim_L1_WM                    0 # Get L1 Write Misses for Accelwattch-Hybrid from Accel-Sim
-accelwattch_hybrid_perfsim_L2_RH                    0 # Get L2 Read Hits for Accelwattch-Hybrid from Accel-Sim
-accelwattch_hybrid_perfsim_L2_RM                    0 # Get L2 Read Misses for Accelwattch-Hybrid from Accel-Sim
-accelwattch_hybrid_perfsim_L2_WH                    0 # Get L2 Write Hits for Accelwattch-Hybrid from Accel-Sim
-accelwattch_hybrid_perfsim_L2_WM                    0 # Get L2 Write Misses for Accelwattch-Hybrid from Accel-Sim
-accelwattch_hybrid_perfsim_CC_ACC                    0 # Get Constant Cache Acesses for Accelwattch-Hybrid from Accel-Sim
-accelwattch_hybrid_perfsim_SHARED_ACC                    0 # Get Shared Memory Acesses for Accelwattch-Hybrid from Accel-Sim
-accelwattch_hybrid_perfsim_DRAM_RD                    0 # Get DRAM Reads for Accelwattch-Hybrid from Accel-Sim
-accelwattch_hybrid_perfsim_DRAM_WR                    0 # Get DRAM Writes for Accelwattch-Hybrid from Accel-Sim
-accelwattch_hybrid_perfsim_NOC                    0 # Get Interconnect Acesses for Accelwattch-Hybrid from Accel-Sim
-accelwattch_hybrid_perfsim_PIPE_DUTY                    0 # Get Pipeline Duty Cycle Acesses for Accelwattch-Hybrid from Accel-Sim
-accelwattch_hybrid_perfsim_NUM_SM_IDLE                    0 # Get Number of Idle SMs for Accelwattch-Hybrid from Accel-Sim
-accelwattch_hybrid_perfsim_CYCLES                    0 # Get Executed Cycles for Accelwattch-Hybrid from Accel-Sim
-accelwattch_hybrid_perfsim_VOLTAGE                    0 # Get Chip Voltage for Accelwattch-Hybrid from Accel-Sim
-power_trace_enabled                    0 # produce a file for the power trace (1=On, 0=Off)
-power_trace_zlevel                     6 # Compression level of the power trace output log (0=no comp, 9=highest)
-steady_power_levels_enabled                    0 # produce a file for the steady power levels (1=On, 0=Off)
-steady_state_definition                  8:4 # allowed deviation:number of samples
-gpgpu_max_cycle                        0 # terminates gpu simulation early (0 = no limit)
-gpgpu_max_insn                 100000000 # terminates gpu simulation early (0 = no limit)
-gpgpu_max_cta                          0 # terminates gpu simulation early (0 = no limit)
-gpgpu_max_completed_cta                    0 # terminates gpu simulation early (0 = no limit)
-gpgpu_runtime_stat                   500 # display runtime statistics such as dram utilization {<freq>:<flag>}
-liveness_message_freq                    1 # Minimum number of seconds between simulation liveness messages (0 = always print)
-gpgpu_compute_capability_major                    8 # Major compute capability version number
-gpgpu_compute_capability_minor                    6 # Minor compute capability version number
-gpgpu_flush_l1_cache                    1 # Flush L1 cache at the end of each kernel call
-gpgpu_flush_l2_cache                    0 # Flush L2 cache at the end of each kernel call
-gpgpu_deadlock_detect                    1 # Stop the simulation at deadlock (1=on (default), 0=off)
-gpgpu_ptx_instruction_classification                    0 # if enabled will classify ptx instruction types per kernel (Max 255 kernels now)
-gpgpu_ptx_sim_mode                     0 # Select between Performance (default) or Functional simulation (1)
-gpgpu_clock_domains 1132:1132:1132:3500.5 # Clock Domain Frequencies in MhZ {<Core Clock>:<ICNT Clock>:<L2 Clock>:<DRAM Clock>}
-gpgpu_max_concurrent_kernel                  128 # maximum kernels that can run concurrently on GPU, set this value according to max resident grids for your compute capability
-gpgpu_cflog_interval                    0 # Interval between each snapshot in control flow logger
-visualizer_enabled                     0 # Turn on visualizer output (1=On, 0=Off)
-visualizer_outputfile                 NULL # Specifies the output log file for visualizer
-visualizer_zlevel                      6 # Compression level of the visualizer output log (0=no comp, 9=highest)
-gpgpu_stack_size_limit                 1024 # GPU thread stack size
-gpgpu_heap_size_limit              8388608 # GPU malloc heap size 
-gpgpu_runtime_sync_depth_limit                    2 # GPU device runtime synchronize depth
-gpgpu_runtime_pending_launch_count_limit                 2048 # GPU device runtime pending launch count
-trace_enabled                          0 # Turn on traces
-trace_components                    none # comma seperated list of traces to enable. Complete list found in trace_streams.tup. Default none
-trace_sampling_core                    0 # The core which is printed using CORE_DPRINTF. Default 0
-trace_sampling_memory_partition                   -1 # The memory partition which is printed using MEMPART_DPRINTF. Default -1 (i.e. all)
-enable_ptx_file_line_stats                    1 # Turn on PTX source line statistic profiling. (1 = On)
-ptx_line_stats_filename gpgpu_inst_stats.txt # Output file for PTX source line statistics.
-gpgpu_kernel_launch_latency                 5000 # Kernel launch latency in cycles. Default: 0
-gpgpu_cdp_enabled                      0 # Turn on CDP
-gpgpu_TB_launch_latency                    0 # thread block launch latency in cycles. Default: 0
-trace               ./util/tracer_nvbit/HS_traces/kernelslist.g # traces kernel filetraces kernel file directory
-trace_opcode_latency_initiation_int                  2,2 # Opcode latencies and initiation for integers in trace driven mode <latency,initiation>
-trace_opcode_latency_initiation_sp                  2,1 # Opcode latencies and initiation for sp in trace driven mode <latency,initiation>
-trace_opcode_latency_initiation_dp                64,64 # Opcode latencies and initiation for dp in trace driven mode <latency,initiation>
-trace_opcode_latency_initiation_sfu                 21,8 # Opcode latencies and initiation for sfu in trace driven mode <latency,initiation>
-trace_opcode_latency_initiation_tensor                32,32 # Opcode latencies and initiation for tensor in trace driven mode <latency,initiation>
-trace_opcode_latency_initiation_spec_op_1                  4,4 # specialized unit config <latency,initiation>
-trace_opcode_latency_initiation_spec_op_2                200,4 # specialized unit config <latency,initiation>
-trace_opcode_latency_initiation_spec_op_3                32,32 # specialized unit config <latency,initiation>
-trace_opcode_latency_initiation_spec_op_4                  4,1 # specialized unit config <latency,initiation>
-trace_opcode_latency_initiation_spec_op_5                  4,4 # specialized unit config <latency,initiation>
-trace_opcode_latency_initiation_spec_op_6                  4,4 # specialized unit config <latency,initiation>
-trace_opcode_latency_initiation_spec_op_7                  4,4 # specialized unit config <latency,initiation>
-trace_opcode_latency_initiation_spec_op_8                  4,4 # specialized unit config <latency,initiation>
DRAM Timing Options:
nbk                                    16 # number of banks
CCD                                     2 # column to column delay
RRD                                     6 # minimal delay between activation of rows in different banks
RCD                                    12 # row to column delay
RAS                                    28 # time needed to activate row
RP                                     12 # time needed to precharge (deactivate) row
RC                                     40 # row cycle time
CDLR                                    5 # switching from write to read (changes tWTR)
WR                                     12 # last data-in to row precharge
CL                                     12 # CAS latency
WL                                      4 # Write latency
nbkgrp                                  4 # number of bank groups
CCDL                                    3 # column to column delay between accesses to different bank groups
RTPL                                    2 # read to precharge delay between accesses to different bank groups
Total number of memory sub partition = 12
addr_dec_mask[CHIP]  = 0000000000000000 	high:64 low:0
addr_dec_mask[BK]    = 000000000000e100 	high:16 low:8
addr_dec_mask[ROW]   = 000000000fff0000 	high:28 low:16
addr_dec_mask[COL]   = 0000000000001eff 	high:13 low:0
addr_dec_mask[BURST] = 000000000000003f 	high:6 low:0
sub_partition_id_mask = 0000000000000100
GPGPU-Sim uArch: clock freqs: 1132000000.000000:1132000000.000000:1132000000.000000:3500500000.000000
GPGPU-Sim uArch: clock periods: 0.00000000088339222615:0.00000000088339222615:0.00000000088339222615:0.00000000028567347522
*** Initializing Memory Statistics ***
GPGPU-Sim uArch: performance model initialization complete.
launching memcpy command : MemcpyHtoD,0x000079bdc7400000,1048576
launching memcpy command : MemcpyHtoD,0x000079bdc7600000,1048576
Processing kernel ./util/tracer_nvbit/HS_traces/kernel-1-ctx_0x2ff016d0.traceg.xz
-kernel name = _Z14calculate_tempiPfS_S_iiiiffffff
-kernel id = 1
-grid dim = (43,43,1)
-block dim = (16,16,1)
-shmem = 3072
-nregs = 34
-binary version = 86
-cuda stream id = 0
-shmem base_addr = 0x000079bde1000000
-local mem base_addr = 0x000079bddf000000
-nvbit version = 1.7.6
-accelsim tracer version = 5
-enable lineinfo = 0
Header info loaded for kernel command : ./util/tracer_nvbit/HS_traces/kernel-1-ctx_0x2ff016d0.traceg.xz
launching kernel name: _Z14calculate_tempiPfS_S_iiiiffffff uid: 1 cuda_stream_id: 0
GPGPU-Sim uArch: Shader 0 bind to kernel 1 '_Z14calculate_tempiPfS_S_iiiiffffff'
GPGPU-Sim uArch: CTA/core = 6, limited by: threads
thread block = 0,0,0
GPGPU-Sim uArch: Shader 1 bind to kernel 1 '_Z14calculate_tempiPfS_S_iiiiffffff'
thread block = 1,0,0
GPGPU-Sim uArch: Shader 2 bind to kernel 1 '_Z14calculate_tempiPfS_S_iiiiffffff'
thread block = 2,0,0
GPGPU-Sim uArch: Shader 3 bind to kernel 1 '_Z14calculate_tempiPfS_S_iiiiffffff'
thread block = 3,0,0
GPGPU-Sim uArch: Shader 4 bind to kernel 1 '_Z14calculate_tempiPfS_S_iiiiffffff'
thread block = 4,0,0
GPGPU-Sim uArch: Shader 5 bind to kernel 1 '_Z14calculate_tempiPfS_S_iiiiffffff'
thread block = 5,0,0
GPGPU-Sim uArch: Shader 6 bind to kernel 1 '_Z14calculate_tempiPfS_S_iiiiffffff'
thread block = 6,0,0
GPGPU-Sim uArch: Shader 7 bind to kernel 1 '_Z14calculate_tempiPfS_S_iiiiffffff'
thread block = 7,0,0
GPGPU-Sim uArch: Shader 8 bind to kernel 1 '_Z14calculate_tempiPfS_S_iiiiffffff'
thread block = 8,0,0
GPGPU-Sim uArch: Shader 9 bind to kernel 1 '_Z14calculate_tempiPfS_S_iiiiffffff'
thread block = 9,0,0
GPGPU-Sim uArch: Shader 10 bind to kernel 1 '_Z14calculate_tempiPfS_S_iiiiffffff'
thread block = 10,0,0
GPGPU-Sim uArch: Shader 11 bind to kernel 1 '_Z14calculate_tempiPfS_S_iiiiffffff'
thread block = 11,0,0
GPGPU-Sim uArch: Shader 12 bind to kernel 1 '_Z14calculate_tempiPfS_S_iiiiffffff'
thread block = 12,0,0
GPGPU-Sim uArch: Shader 13 bind to kernel 1 '_Z14calculate_tempiPfS_S_iiiiffffff'
thread block = 13,0,0
GPGPU-Sim uArch: Shader 14 bind to kernel 1 '_Z14calculate_tempiPfS_S_iiiiffffff'
thread block = 14,0,0
thread block = 15,0,0
thread block = 16,0,0
thread block = 17,0,0
thread block = 18,0,0
thread block = 19,0,0
thread block = 20,0,0
thread block = 21,0,0
thread block = 22,0,0
thread block = 23,0,0
thread block = 24,0,0
thread block = 25,0,0
thread block = 26,0,0
thread block = 27,0,0
thread block = 28,0,0
thread block = 29,0,0
thread block = 30,0,0
thread block = 31,0,0
thread block = 32,0,0
thread block = 33,0,0
thread block = 34,0,0
thread block = 35,0,0
thread block = 36,0,0
thread block = 37,0,0
thread block = 38,0,0
thread block = 39,0,0
thread block = 40,0,0
thread block = 41,0,0
thread block = 42,0,0
thread block = 0,1,0
thread block = 1,1,0
thread block = 2,1,0
thread block = 3,1,0
thread block = 4,1,0
thread block = 5,1,0
thread block = 6,1,0
thread block = 7,1,0
thread block = 8,1,0
thread block = 9,1,0
thread block = 10,1,0
thread block = 11,1,0
thread block = 12,1,0
thread block = 13,1,0
thread block = 14,1,0
thread block = 15,1,0
thread block = 16,1,0
thread block = 17,1,0
thread block = 18,1,0
thread block = 19,1,0
thread block = 20,1,0
thread block = 21,1,0
thread block = 22,1,0
thread block = 23,1,0
thread block = 24,1,0
thread block = 25,1,0
thread block = 26,1,0
thread block = 27,1,0
thread block = 28,1,0
thread block = 29,1,0
thread block = 30,1,0
thread block = 31,1,0
thread block = 32,1,0
thread block = 33,1,0
thread block = 34,1,0
thread block = 35,1,0
thread block = 36,1,0
thread block = 37,1,0
thread block = 38,1,0
thread block = 39,1,0
thread block = 40,1,0
thread block = 41,1,0
thread block = 42,1,0
thread block = 0,2,0
thread block = 1,2,0
thread block = 2,2,0
thread block = 3,2,0
thread block = 4,2,0
thread block = 5,2,0
thread block = 6,2,0
thread block = 7,2,0
thread block = 8,2,0
thread block = 9,2,0
thread block = 10,2,0
thread block = 11,2,0
thread block = 12,2,0
thread block = 13,2,0
thread block = 14,2,0
thread block = 15,2,0
thread block = 16,2,0
thread block = 17,2,0
thread block = 18,2,0
thread block = 19,2,0
thread block = 20,2,0
thread block = 21,2,0
thread block = 22,2,0
thread block = 23,2,0
thread block = 24,2,0
thread block = 25,2,0
thread block = 26,2,0
thread block = 27,2,0
thread block = 28,2,0
thread block = 29,2,0
thread block = 30,2,0
thread block = 31,2,0
thread block = 32,2,0
thread block = 33,2,0
thread block = 34,2,0
thread block = 35,2,0
thread block = 36,2,0
thread block = 37,2,0
thread block = 38,2,0
thread block = 39,2,0
thread block = 40,2,0
thread block = 41,2,0
thread block = 42,2,0
thread block = 0,3,0
thread block = 1,3,0
thread block = 2,3,0
thread block = 3,3,0
thread block = 4,3,0
thread block = 5,3,0
thread block = 6,3,0
thread block = 7,3,0
thread block = 8,3,0
thread block = 9,3,0
thread block = 10,3,0
thread block = 11,3,0
thread block = 12,3,0
thread block = 13,3,0
thread block = 14,3,0
thread block = 15,3,0
thread block = 16,3,0
thread block = 17,3,0
thread block = 18,3,0
thread block = 19,3,0
thread block = 20,3,0
thread block = 21,3,0
thread block = 22,3,0
thread block = 23,3,0
thread block = 24,3,0
thread block = 25,3,0
thread block = 26,3,0
thread block = 27,3,0
thread block = 28,3,0
thread block = 29,3,0
thread block = 30,3,0
thread block = 31,3,0
thread block = 32,3,0
thread block = 33,3,0
thread block = 34,3,0
thread block = 35,3,0
thread block = 36,3,0
thread block = 37,3,0
thread block = 38,3,0
thread block = 39,3,0
thread block = 40,3,0
thread block = 41,3,0
thread block = 42,3,0
thread block = 0,4,0
thread block = 1,4,0
thread block = 2,4,0
thread block = 3,4,0
thread block = 4,4,0
thread block = 5,4,0
thread block = 6,4,0
thread block = 7,4,0
thread block = 8,4,0
thread block = 9,4,0
thread block = 10,4,0
thread block = 11,4,0
thread block = 12,4,0
thread block = 13,4,0
thread block = 14,4,0
thread block = 15,4,0
thread block = 16,4,0
thread block = 17,4,0
thread block = 18,4,0
thread block = 19,4,0
thread block = 20,4,0
thread block = 21,4,0
thread block = 22,4,0
thread block = 23,4,0
thread block = 24,4,0
thread block = 25,4,0
thread block = 26,4,0
thread block = 27,4,0
thread block = 28,4,0
thread block = 29,4,0
thread block = 30,4,0
thread block = 31,4,0
thread block = 32,4,0
thread block = 33,4,0
thread block = 34,4,0
thread block = 35,4,0
thread block = 36,4,0
thread block = 37,4,0
thread block = 38,4,0
thread block = 39,4,0
thread block = 40,4,0
thread block = 41,4,0
thread block = 42,4,0
thread block = 0,5,0
thread block = 1,5,0
thread block = 2,5,0
thread block = 3,5,0
thread block = 4,5,0
thread block = 5,5,0
thread block = 6,5,0
thread block = 7,5,0
thread block = 8,5,0
thread block = 9,5,0
thread block = 10,5,0
thread block = 11,5,0
thread block = 12,5,0
thread block = 13,5,0
thread block = 14,5,0
thread block = 15,5,0
thread block = 16,5,0
thread block = 17,5,0
thread block = 18,5,0
thread block = 19,5,0
thread block = 20,5,0
thread block = 21,5,0
thread block = 22,5,0
thread block = 23,5,0
thread block = 24,5,0
thread block = 25,5,0
thread block = 26,5,0
thread block = 27,5,0
thread block = 28,5,0
thread block = 29,5,0
thread block = 30,5,0
thread block = 31,5,0
thread block = 32,5,0
thread block = 33,5,0
thread block = 34,5,0
thread block = 35,5,0
thread block = 36,5,0
thread block = 37,5,0
thread block = 38,5,0
thread block = 39,5,0
thread block = 40,5,0
thread block = 41,5,0
thread block = 42,5,0
thread block = 0,6,0
thread block = 1,6,0
thread block = 2,6,0
thread block = 3,6,0
thread block = 4,6,0
thread block = 5,6,0
thread block = 6,6,0
thread block = 7,6,0
thread block = 8,6,0
thread block = 9,6,0
thread block = 10,6,0
thread block = 11,6,0
thread block = 12,6,0
thread block = 13,6,0
thread block = 14,6,0
thread block = 15,6,0
thread block = 16,6,0
thread block = 17,6,0
thread block = 18,6,0
thread block = 19,6,0
thread block = 20,6,0
thread block = 21,6,0
thread block = 22,6,0
thread block = 23,6,0
thread block = 24,6,0
thread block = 25,6,0
thread block = 26,6,0
thread block = 27,6,0
thread block = 28,6,0
thread block = 29,6,0
thread block = 30,6,0
thread block = 31,6,0
thread block = 32,6,0
thread block = 33,6,0
thread block = 34,6,0
thread block = 35,6,0
thread block = 36,6,0
thread block = 37,6,0
thread block = 38,6,0
thread block = 39,6,0
thread block = 40,6,0
thread block = 41,6,0
thread block = 42,6,0
thread block = 0,7,0
thread block = 1,7,0
thread block = 2,7,0
thread block = 3,7,0
thread block = 4,7,0
thread block = 5,7,0
thread block = 6,7,0
thread block = 7,7,0
thread block = 8,7,0
thread block = 9,7,0
thread block = 10,7,0
thread block = 11,7,0
thread block = 12,7,0
thread block = 13,7,0
thread block = 14,7,0
thread block = 15,7,0
thread block = 16,7,0
thread block = 17,7,0
thread block = 18,7,0
thread block = 19,7,0
thread block = 20,7,0
thread block = 21,7,0
thread block = 22,7,0
thread block = 23,7,0
thread block = 24,7,0
thread block = 25,7,0
thread block = 26,7,0
thread block = 27,7,0
thread block = 28,7,0
thread block = 29,7,0
thread block = 30,7,0
thread block = 31,7,0
thread block = 32,7,0
thread block = 33,7,0
thread block = 34,7,0
thread block = 35,7,0
thread block = 36,7,0
thread block = 37,7,0
thread block = 38,7,0
thread block = 39,7,0
thread block = 40,7,0
thread block = 41,7,0
thread block = 42,7,0
thread block = 0,8,0
thread block = 1,8,0
thread block = 2,8,0
thread block = 3,8,0
thread block = 4,8,0
thread block = 5,8,0
thread block = 6,8,0
thread block = 7,8,0
thread block = 8,8,0
thread block = 9,8,0
thread block = 10,8,0
thread block = 11,8,0
thread block = 12,8,0
thread block = 13,8,0
thread block = 14,8,0
thread block = 15,8,0
thread block = 16,8,0
thread block = 17,8,0
thread block = 18,8,0
thread block = 19,8,0
thread block = 20,8,0
thread block = 21,8,0
thread block = 22,8,0
thread block = 23,8,0
thread block = 24,8,0
thread block = 25,8,0
thread block = 26,8,0
thread block = 27,8,0
thread block = 28,8,0
thread block = 29,8,0
thread block = 30,8,0
thread block = 31,8,0
thread block = 32,8,0
thread block = 33,8,0
thread block = 34,8,0
thread block = 35,8,0
thread block = 36,8,0
thread block = 37,8,0
thread block = 38,8,0
thread block = 39,8,0
thread block = 40,8,0
thread block = 41,8,0
thread block = 42,8,0
thread block = 0,9,0
thread block = 1,9,0
thread block = 2,9,0
thread block = 3,9,0
thread block = 4,9,0
thread block = 5,9,0
thread block = 6,9,0
thread block = 7,9,0
thread block = 8,9,0
thread block = 9,9,0
thread block = 10,9,0
thread block = 11,9,0
thread block = 12,9,0
thread block = 13,9,0
thread block = 14,9,0
thread block = 15,9,0
thread block = 16,9,0
thread block = 17,9,0
thread block = 18,9,0
thread block = 19,9,0
thread block = 20,9,0
thread block = 21,9,0
thread block = 22,9,0
thread block = 23,9,0
thread block = 24,9,0
thread block = 25,9,0
thread block = 26,9,0
thread block = 27,9,0
thread block = 28,9,0
thread block = 29,9,0
thread block = 30,9,0
thread block = 31,9,0
thread block = 32,9,0
thread block = 33,9,0
thread block = 34,9,0
thread block = 35,9,0
thread block = 36,9,0
thread block = 37,9,0
thread block = 38,9,0
thread block = 39,9,0
thread block = 40,9,0
thread block = 41,9,0
thread block = 42,9,0
thread block = 0,10,0
thread block = 1,10,0
thread block = 2,10,0
thread block = 3,10,0
thread block = 4,10,0
thread block = 5,10,0
thread block = 6,10,0
thread block = 7,10,0
thread block = 8,10,0
thread block = 9,10,0
thread block = 10,10,0
thread block = 11,10,0
thread block = 12,10,0
thread block = 13,10,0
thread block = 14,10,0
thread block = 15,10,0
thread block = 16,10,0
thread block = 17,10,0
thread block = 18,10,0
thread block = 19,10,0
thread block = 20,10,0
thread block = 21,10,0
thread block = 22,10,0
thread block = 23,10,0
thread block = 24,10,0
thread block = 25,10,0
thread block = 26,10,0
thread block = 27,10,0
thread block = 28,10,0
thread block = 29,10,0
thread block = 30,10,0
thread block = 31,10,0
thread block = 32,10,0
thread block = 33,10,0
thread block = 34,10,0
thread block = 35,10,0
thread block = 36,10,0
thread block = 37,10,0
thread block = 38,10,0
thread block = 39,10,0
thread block = 40,10,0
thread block = 41,10,0
thread block = 42,10,0
thread block = 0,11,0
thread block = 1,11,0
thread block = 2,11,0
thread block = 3,11,0
thread block = 4,11,0
thread block = 5,11,0
thread block = 6,11,0
thread block = 7,11,0
thread block = 8,11,0
thread block = 9,11,0
thread block = 10,11,0
thread block = 11,11,0
thread block = 12,11,0
thread block = 13,11,0
thread block = 14,11,0
thread block = 15,11,0
thread block = 16,11,0
thread block = 17,11,0
thread block = 18,11,0
thread block = 19,11,0
thread block = 20,11,0
thread block = 21,11,0
thread block = 22,11,0
thread block = 23,11,0
thread block = 24,11,0
thread block = 25,11,0
thread block = 26,11,0
thread block = 27,11,0
thread block = 28,11,0
thread block = 29,11,0
thread block = 30,11,0
thread block = 31,11,0
thread block = 32,11,0
thread block = 33,11,0
thread block = 34,11,0
thread block = 35,11,0
thread block = 36,11,0
thread block = 37,11,0
thread block = 38,11,0
thread block = 39,11,0
thread block = 40,11,0
thread block = 41,11,0
thread block = 42,11,0
thread block = 0,12,0
thread block = 1,12,0
thread block = 2,12,0
thread block = 3,12,0
thread block = 4,12,0
thread block = 5,12,0
thread block = 6,12,0
thread block = 7,12,0
thread block = 8,12,0
thread block = 9,12,0
thread block = 10,12,0
thread block = 11,12,0
thread block = 12,12,0
thread block = 13,12,0
thread block = 14,12,0
thread block = 15,12,0
thread block = 16,12,0
thread block = 17,12,0
thread block = 18,12,0
thread block = 19,12,0
thread block = 20,12,0
thread block = 21,12,0
thread block = 22,12,0
thread block = 23,12,0
thread block = 24,12,0
thread block = 25,12,0
thread block = 26,12,0
thread block = 27,12,0
thread block = 28,12,0
thread block = 29,12,0
thread block = 30,12,0
thread block = 31,12,0
thread block = 32,12,0
thread block = 33,12,0
thread block = 34,12,0
thread block = 35,12,0
thread block = 36,12,0
thread block = 37,12,0
thread block = 38,12,0
thread block = 39,12,0
thread block = 40,12,0
thread block = 41,12,0
thread block = 42,12,0
thread block = 0,13,0
thread block = 1,13,0
thread block = 2,13,0
thread block = 3,13,0
thread block = 4,13,0
thread block = 5,13,0
thread block = 6,13,0
thread block = 7,13,0
thread block = 8,13,0
thread block = 9,13,0
thread block = 10,13,0
thread block = 11,13,0
thread block = 12,13,0
thread block = 13,13,0
thread block = 14,13,0
thread block = 15,13,0
thread block = 16,13,0
thread block = 17,13,0
thread block = 18,13,0
thread block = 19,13,0
thread block = 20,13,0
thread block = 21,13,0
thread block = 22,13,0
thread block = 23,13,0
thread block = 24,13,0
thread block = 25,13,0
thread block = 26,13,0
thread block = 27,13,0
thread block = 28,13,0
thread block = 29,13,0
thread block = 30,13,0
thread block = 31,13,0
thread block = 32,13,0
thread block = 33,13,0
thread block = 34,13,0
thread block = 35,13,0
thread block = 36,13,0
thread block = 37,13,0
thread block = 38,13,0
thread block = 39,13,0
thread block = 40,13,0
thread block = 41,13,0
thread block = 42,13,0
thread block = 0,14,0
thread block = 1,14,0
thread block = 2,14,0
thread block = 3,14,0
thread block = 4,14,0
thread block = 5,14,0
thread block = 6,14,0
thread block = 7,14,0
thread block = 8,14,0
thread block = 9,14,0
thread block = 10,14,0
thread block = 11,14,0
thread block = 12,14,0
thread block = 13,14,0
thread block = 14,14,0
thread block = 15,14,0
thread block = 16,14,0
thread block = 17,14,0
thread block = 18,14,0
thread block = 19,14,0
thread block = 20,14,0
thread block = 21,14,0
thread block = 22,14,0
thread block = 23,14,0
thread block = 24,14,0
thread block = 25,14,0
thread block = 26,14,0
thread block = 27,14,0
thread block = 28,14,0
thread block = 29,14,0
thread block = 30,14,0
thread block = 31,14,0
thread block = 32,14,0
thread block = 33,14,0
thread block = 34,14,0
thread block = 35,14,0
thread block = 36,14,0
thread block = 37,14,0
thread block = 38,14,0
thread block = 39,14,0
thread block = 40,14,0
thread block = 41,14,0
thread block = 42,14,0
thread block = 0,15,0
thread block = 1,15,0
thread block = 2,15,0
thread block = 3,15,0
thread block = 4,15,0
thread block = 5,15,0
thread block = 6,15,0
thread block = 7,15,0
thread block = 8,15,0
thread block = 9,15,0
thread block = 10,15,0
thread block = 11,15,0
thread block = 12,15,0
thread block = 13,15,0
thread block = 14,15,0
thread block = 15,15,0
thread block = 16,15,0
thread block = 17,15,0
thread block = 18,15,0
thread block = 19,15,0
thread block = 20,15,0
thread block = 21,15,0
thread block = 22,15,0
thread block = 23,15,0
thread block = 24,15,0
thread block = 25,15,0
thread block = 26,15,0
thread block = 27,15,0
thread block = 28,15,0
thread block = 29,15,0
thread block = 30,15,0
thread block = 31,15,0
thread block = 32,15,0
thread block = 33,15,0
thread block = 34,15,0
thread block = 35,15,0
thread block = 36,15,0
thread block = 37,15,0
thread block = 38,15,0
thread block = 39,15,0
thread block = 40,15,0
thread block = 41,15,0
thread block = 42,15,0
thread block = 0,16,0
thread block = 1,16,0
thread block = 2,16,0
thread block = 3,16,0
thread block = 4,16,0
thread block = 5,16,0
thread block = 6,16,0
thread block = 7,16,0
thread block = 8,16,0
thread block = 9,16,0
thread block = 10,16,0
thread block = 11,16,0
thread block = 12,16,0
thread block = 13,16,0
thread block = 14,16,0
thread block = 15,16,0
thread block = 16,16,0
thread block = 17,16,0
thread block = 18,16,0
thread block = 19,16,0
thread block = 20,16,0
thread block = 21,16,0
thread block = 22,16,0
thread block = 23,16,0
thread block = 24,16,0
thread block = 25,16,0
thread block = 26,16,0
thread block = 27,16,0
thread block = 28,16,0
thread block = 29,16,0
thread block = 30,16,0
thread block = 31,16,0
thread block = 32,16,0
thread block = 33,16,0
thread block = 34,16,0
thread block = 35,16,0
thread block = 36,16,0
thread block = 37,16,0
thread block = 38,16,0
thread block = 39,16,0
thread block = 40,16,0
thread block = 41,16,0
thread block = 42,16,0
thread block = 0,17,0
thread block = 1,17,0
thread block = 2,17,0
thread block = 3,17,0
thread block = 4,17,0
thread block = 5,17,0
thread block = 6,17,0
thread block = 7,17,0
thread block = 8,17,0
thread block = 9,17,0
thread block = 10,17,0
thread block = 11,17,0
thread block = 12,17,0
thread block = 13,17,0
thread block = 14,17,0
thread block = 15,17,0
thread block = 16,17,0
thread block = 17,17,0
thread block = 18,17,0
thread block = 19,17,0
thread block = 20,17,0
thread block = 21,17,0
thread block = 22,17,0
thread block = 23,17,0
thread block = 24,17,0
thread block = 25,17,0
thread block = 26,17,0
thread block = 27,17,0
thread block = 28,17,0
thread block = 29,17,0
thread block = 30,17,0
thread block = 31,17,0
thread block = 32,17,0
thread block = 33,17,0
thread block = 34,17,0
thread block = 35,17,0
thread block = 36,17,0
thread block = 37,17,0
thread block = 38,17,0
thread block = 39,17,0
thread block = 40,17,0
thread block = 41,17,0
thread block = 42,17,0
thread block = 0,18,0
thread block = 1,18,0
thread block = 2,18,0
thread block = 3,18,0
thread block = 4,18,0
thread block = 5,18,0
thread block = 6,18,0
thread block = 7,18,0
thread block = 8,18,0
thread block = 9,18,0
thread block = 10,18,0
thread block = 11,18,0
thread block = 12,18,0
thread block = 13,18,0
thread block = 14,18,0
thread block = 15,18,0
thread block = 16,18,0
thread block = 17,18,0
thread block = 18,18,0
thread block = 19,18,0
thread block = 20,18,0
thread block = 21,18,0
thread block = 22,18,0
thread block = 23,18,0
thread block = 24,18,0
thread block = 25,18,0
thread block = 26,18,0
thread block = 27,18,0
thread block = 28,18,0
thread block = 29,18,0
thread block = 30,18,0
thread block = 31,18,0
thread block = 32,18,0
thread block = 33,18,0
thread block = 34,18,0
thread block = 35,18,0
thread block = 36,18,0
thread block = 37,18,0
thread block = 38,18,0
thread block = 39,18,0
thread block = 40,18,0
thread block = 41,18,0
thread block = 42,18,0
thread block = 0,19,0
thread block = 1,19,0
thread block = 2,19,0
thread block = 3,19,0
thread block = 4,19,0
thread block = 5,19,0
thread block = 6,19,0
thread block = 7,19,0
thread block = 8,19,0
thread block = 9,19,0
thread block = 10,19,0
thread block = 11,19,0
thread block = 12,19,0
thread block = 13,19,0
thread block = 14,19,0
thread block = 15,19,0
thread block = 16,19,0
thread block = 17,19,0
thread block = 18,19,0
thread block = 19,19,0
thread block = 20,19,0
thread block = 21,19,0
thread block = 22,19,0
thread block = 23,19,0
thread block = 24,19,0
thread block = 25,19,0
thread block = 26,19,0
thread block = 27,19,0
thread block = 28,19,0
thread block = 29,19,0
thread block = 30,19,0
thread block = 31,19,0
thread block = 32,19,0
thread block = 33,19,0
thread block = 34,19,0
thread block = 35,19,0
thread block = 36,19,0
thread block = 37,19,0
thread block = 38,19,0
thread block = 39,19,0
thread block = 40,19,0
thread block = 41,19,0
thread block = 42,19,0
thread block = 0,20,0
thread block = 1,20,0
thread block = 2,20,0
thread block = 3,20,0
thread block = 4,20,0
thread block = 5,20,0
thread block = 6,20,0
thread block = 7,20,0
thread block = 8,20,0
thread block = 9,20,0
thread block = 10,20,0
thread block = 11,20,0
thread block = 12,20,0
thread block = 13,20,0
thread block = 14,20,0
thread block = 15,20,0
thread block = 16,20,0
thread block = 17,20,0
thread block = 18,20,0
thread block = 19,20,0
thread block = 20,20,0
thread block = 21,20,0
thread block = 22,20,0
thread block = 23,20,0
thread block = 24,20,0
thread block = 25,20,0
thread block = 26,20,0
thread block = 27,20,0
thread block = 28,20,0
thread block = 29,20,0
thread block = 30,20,0
thread block = 31,20,0
thread block = 32,20,0
thread block = 33,20,0
thread block = 34,20,0
thread block = 35,20,0
thread block = 36,20,0
thread block = 37,20,0
thread block = 38,20,0
thread block = 39,20,0
thread block = 40,20,0
thread block = 41,20,0
thread block = 42,20,0
thread block = 0,21,0
thread block = 1,21,0
thread block = 2,21,0
thread block = 3,21,0
thread block = 4,21,0
thread block = 5,21,0
thread block = 6,21,0
thread block = 7,21,0
thread block = 8,21,0
thread block = 9,21,0
thread block = 10,21,0
thread block = 11,21,0
thread block = 12,21,0
thread block = 13,21,0
thread block = 14,21,0
thread block = 15,21,0
thread block = 16,21,0
thread block = 17,21,0
thread block = 18,21,0
thread block = 19,21,0
thread block = 20,21,0
thread block = 21,21,0
thread block = 22,21,0
thread block = 23,21,0
thread block = 24,21,0
thread block = 25,21,0
thread block = 26,21,0
thread block = 27,21,0
thread block = 28,21,0
thread block = 29,21,0
thread block = 30,21,0
thread block = 31,21,0
thread block = 32,21,0
thread block = 33,21,0
thread block = 34,21,0
thread block = 35,21,0
thread block = 36,21,0
thread block = 37,21,0
thread block = 38,21,0
thread block = 39,21,0
thread block = 40,21,0
thread block = 41,21,0
thread block = 42,21,0
thread block = 0,22,0
thread block = 1,22,0
thread block = 2,22,0
thread block = 3,22,0
thread block = 4,22,0
thread block = 5,22,0
thread block = 6,22,0
thread block = 7,22,0
thread block = 8,22,0
thread block = 9,22,0
thread block = 10,22,0
thread block = 11,22,0
thread block = 12,22,0
thread block = 13,22,0
thread block = 14,22,0
thread block = 15,22,0
thread block = 16,22,0
thread block = 17,22,0
thread block = 18,22,0
thread block = 19,22,0
thread block = 20,22,0
thread block = 21,22,0
thread block = 22,22,0
thread block = 23,22,0
thread block = 24,22,0
thread block = 25,22,0
thread block = 26,22,0
thread block = 27,22,0
thread block = 28,22,0
thread block = 29,22,0
thread block = 30,22,0
thread block = 31,22,0
thread block = 32,22,0
thread block = 33,22,0
thread block = 34,22,0
thread block = 35,22,0
thread block = 36,22,0
thread block = 37,22,0
thread block = 38,22,0
thread block = 39,22,0
thread block = 40,22,0
thread block = 41,22,0
thread block = 42,22,0
thread block = 0,23,0
thread block = 1,23,0
thread block = 2,23,0
thread block = 3,23,0
thread block = 4,23,0
thread block = 5,23,0
thread block = 6,23,0
thread block = 7,23,0
thread block = 8,23,0
thread block = 9,23,0
thread block = 10,23,0
thread block = 11,23,0
thread block = 12,23,0
thread block = 13,23,0
thread block = 14,23,0
thread block = 15,23,0
thread block = 16,23,0
thread block = 17,23,0
thread block = 18,23,0
thread block = 19,23,0
thread block = 20,23,0
thread block = 21,23,0
thread block = 22,23,0
thread block = 23,23,0
thread block = 24,23,0
thread block = 25,23,0
thread block = 26,23,0
thread block = 27,23,0
thread block = 28,23,0
thread block = 29,23,0
thread block = 30,23,0
thread block = 31,23,0
thread block = 32,23,0
thread block = 33,23,0
thread block = 34,23,0
thread block = 35,23,0
thread block = 36,23,0
thread block = 37,23,0
thread block = 38,23,0
thread block = 39,23,0
thread block = 40,23,0
thread block = 41,23,0
thread block = 42,23,0
thread block = 0,24,0
thread block = 1,24,0
thread block = 2,24,0
thread block = 3,24,0
thread block = 4,24,0
thread block = 5,24,0
thread block = 6,24,0
thread block = 7,24,0
thread block = 8,24,0
thread block = 9,24,0
thread block = 10,24,0
thread block = 11,24,0
thread block = 12,24,0
thread block = 13,24,0
thread block = 14,24,0
thread block = 15,24,0
thread block = 16,24,0
thread block = 17,24,0
thread block = 18,24,0
thread block = 19,24,0
thread block = 20,24,0
thread block = 21,24,0
thread block = 22,24,0
thread block = 23,24,0
thread block = 24,24,0
thread block = 25,24,0
thread block = 26,24,0
thread block = 27,24,0
thread block = 28,24,0
thread block = 29,24,0
thread block = 30,24,0
thread block = 31,24,0
thread block = 32,24,0
thread block = 33,24,0
thread block = 34,24,0
thread block = 35,24,0
thread block = 36,24,0
thread block = 37,24,0
thread block = 38,24,0
thread block = 39,24,0
thread block = 40,24,0
thread block = 41,24,0
thread block = 42,24,0
thread block = 0,25,0
thread block = 1,25,0
thread block = 2,25,0
thread block = 3,25,0
thread block = 4,25,0
thread block = 5,25,0
thread block = 6,25,0
thread block = 7,25,0
thread block = 8,25,0
thread block = 9,25,0
thread block = 10,25,0
thread block = 11,25,0
thread block = 12,25,0
thread block = 13,25,0
thread block = 14,25,0
thread block = 15,25,0
thread block = 16,25,0
thread block = 17,25,0
thread block = 18,25,0
thread block = 19,25,0
thread block = 20,25,0
thread block = 21,25,0
thread block = 22,25,0
thread block = 23,25,0
thread block = 24,25,0
thread block = 25,25,0
thread block = 26,25,0
thread block = 27,25,0
thread block = 28,25,0
thread block = 29,25,0
thread block = 30,25,0
thread block = 31,25,0
thread block = 32,25,0
thread block = 33,25,0
thread block = 34,25,0
thread block = 35,25,0
thread block = 36,25,0
thread block = 37,25,0
thread block = 38,25,0
thread block = 39,25,0
thread block = 40,25,0
thread block = 41,25,0
thread block = 42,25,0
thread block = 0,26,0
thread block = 1,26,0
thread block = 2,26,0
thread block = 3,26,0
thread block = 4,26,0
thread block = 5,26,0
thread block = 6,26,0
thread block = 7,26,0
thread block = 8,26,0
thread block = 9,26,0
thread block = 10,26,0
thread block = 11,26,0
thread block = 12,26,0
thread block = 13,26,0
thread block = 14,26,0
thread block = 15,26,0
thread block = 16,26,0
thread block = 17,26,0
thread block = 18,26,0
thread block = 19,26,0
thread block = 20,26,0
thread block = 21,26,0
thread block = 22,26,0
thread block = 23,26,0
thread block = 24,26,0
thread block = 25,26,0
thread block = 26,26,0
thread block = 27,26,0
thread block = 28,26,0
thread block = 29,26,0
thread block = 30,26,0
thread block = 31,26,0
thread block = 32,26,0
thread block = 33,26,0
thread block = 34,26,0
thread block = 35,26,0
thread block = 36,26,0
thread block = 37,26,0
thread block = 38,26,0
thread block = 39,26,0
thread block = 40,26,0
thread block = 41,26,0
thread block = 42,26,0
thread block = 0,27,0
thread block = 1,27,0
thread block = 2,27,0
thread block = 3,27,0
thread block = 4,27,0
thread block = 5,27,0
thread block = 6,27,0
thread block = 7,27,0
thread block = 8,27,0
thread block = 9,27,0
thread block = 10,27,0
thread block = 11,27,0
thread block = 12,27,0
thread block = 13,27,0
thread block = 14,27,0
thread block = 15,27,0
thread block = 16,27,0
thread block = 17,27,0
thread block = 18,27,0
thread block = 19,27,0
thread block = 20,27,0
thread block = 21,27,0
thread block = 22,27,0
thread block = 23,27,0
thread block = 24,27,0
thread block = 25,27,0
thread block = 26,27,0
thread block = 27,27,0
thread block = 28,27,0
thread block = 29,27,0
thread block = 30,27,0
thread block = 31,27,0
thread block = 32,27,0
thread block = 33,27,0
thread block = 34,27,0
thread block = 35,27,0
thread block = 36,27,0
thread block = 37,27,0
thread block = 38,27,0
thread block = 39,27,0
thread block = 40,27,0
thread block = 41,27,0
thread block = 42,27,0
thread block = 0,28,0
thread block = 1,28,0
thread block = 2,28,0
thread block = 3,28,0
thread block = 4,28,0
thread block = 5,28,0
thread block = 6,28,0
thread block = 7,28,0
thread block = 8,28,0
thread block = 9,28,0
thread block = 10,28,0
thread block = 11,28,0
thread block = 12,28,0
thread block = 13,28,0
thread block = 14,28,0
thread block = 15,28,0
thread block = 16,28,0
thread block = 17,28,0
thread block = 18,28,0
thread block = 19,28,0
thread block = 20,28,0
thread block = 21,28,0
thread block = 22,28,0
thread block = 23,28,0
thread block = 24,28,0
thread block = 25,28,0
thread block = 26,28,0
thread block = 27,28,0
thread block = 28,28,0
thread block = 29,28,0
thread block = 30,28,0
thread block = 31,28,0
thread block = 32,28,0
thread block = 33,28,0
thread block = 34,28,0
thread block = 35,28,0
thread block = 36,28,0
thread block = 37,28,0
thread block = 38,28,0
thread block = 39,28,0
thread block = 40,28,0
thread block = 41,28,0
thread block = 42,28,0
thread block = 0,29,0
thread block = 1,29,0
thread block = 2,29,0
thread block = 3,29,0
thread block = 4,29,0
thread block = 5,29,0
thread block = 6,29,0
thread block = 7,29,0
thread block = 8,29,0
thread block = 9,29,0
thread block = 10,29,0
thread block = 11,29,0
thread block = 12,29,0
thread block = 13,29,0
thread block = 14,29,0
thread block = 15,29,0
thread block = 16,29,0
thread block = 17,29,0
thread block = 18,29,0
thread block = 19,29,0
thread block = 20,29,0
thread block = 21,29,0
thread block = 22,29,0
thread block = 23,29,0
thread block = 24,29,0
thread block = 25,29,0
thread block = 26,29,0
thread block = 27,29,0
thread block = 28,29,0
thread block = 29,29,0
thread block = 30,29,0
thread block = 31,29,0
thread block = 32,29,0
thread block = 33,29,0
thread block = 34,29,0
thread block = 35,29,0
thread block = 36,29,0
thread block = 37,29,0
thread block = 38,29,0
thread block = 39,29,0
thread block = 40,29,0
thread block = 41,29,0
thread block = 42,29,0
thread block = 0,30,0
thread block = 1,30,0
thread block = 2,30,0
thread block = 3,30,0
thread block = 4,30,0
thread block = 5,30,0
thread block = 6,30,0
thread block = 7,30,0
thread block = 8,30,0
thread block = 9,30,0
thread block = 10,30,0
thread block = 11,30,0
thread block = 12,30,0
thread block = 13,30,0
thread block = 14,30,0
thread block = 15,30,0
thread block = 16,30,0
thread block = 17,30,0
thread block = 18,30,0
thread block = 19,30,0
thread block = 20,30,0
thread block = 21,30,0
thread block = 22,30,0
thread block = 23,30,0
thread block = 24,30,0
thread block = 25,30,0
thread block = 26,30,0
thread block = 27,30,0
thread block = 28,30,0
thread block = 29,30,0
thread block = 30,30,0
thread block = 31,30,0
thread block = 32,30,0
thread block = 33,30,0
thread block = 34,30,0
thread block = 35,30,0
thread block = 36,30,0
thread block = 37,30,0
thread block = 38,30,0
thread block = 39,30,0
thread block = 40,30,0
thread block = 41,30,0
thread block = 42,30,0
thread block = 0,31,0
thread block = 1,31,0
thread block = 2,31,0
thread block = 3,31,0
thread block = 4,31,0
thread block = 5,31,0
thread block = 6,31,0
thread block = 7,31,0
thread block = 8,31,0
thread block = 9,31,0
thread block = 10,31,0
thread block = 11,31,0
thread block = 12,31,0
thread block = 13,31,0
thread block = 14,31,0
thread block = 15,31,0
thread block = 16,31,0
thread block = 17,31,0
thread block = 18,31,0
thread block = 19,31,0
thread block = 20,31,0
thread block = 21,31,0
thread block = 22,31,0
thread block = 23,31,0
thread block = 24,31,0
thread block = 25,31,0
thread block = 26,31,0
thread block = 27,31,0
thread block = 28,31,0
thread block = 29,31,0
thread block = 30,31,0
thread block = 31,31,0
thread block = 32,31,0
thread block = 33,31,0
thread block = 34,31,0
thread block = 35,31,0
thread block = 36,31,0
thread block = 37,31,0
thread block = 38,31,0
thread block = 39,31,0
thread block = 40,31,0
thread block = 41,31,0
thread block = 42,31,0
thread block = 0,32,0
thread block = 1,32,0
thread block = 2,32,0
thread block = 3,32,0
thread block = 4,32,0
thread block = 5,32,0
thread block = 6,32,0
thread block = 7,32,0
thread block = 8,32,0
thread block = 9,32,0
thread block = 10,32,0
thread block = 11,32,0
thread block = 12,32,0
thread block = 13,32,0
thread block = 14,32,0
thread block = 15,32,0
thread block = 16,32,0
thread block = 17,32,0
thread block = 18,32,0
thread block = 19,32,0
thread block = 20,32,0
thread block = 21,32,0
thread block = 22,32,0
thread block = 23,32,0
thread block = 24,32,0
thread block = 25,32,0
thread block = 26,32,0
thread block = 27,32,0
thread block = 28,32,0
thread block = 29,32,0
thread block = 30,32,0
thread block = 31,32,0
thread block = 32,32,0
thread block = 33,32,0
thread block = 34,32,0
thread block = 35,32,0
thread block = 36,32,0
thread block = 37,32,0
thread block = 38,32,0
thread block = 39,32,0
thread block = 40,32,0
thread block = 41,32,0
thread block = 42,32,0
thread block = 0,33,0
thread block = 1,33,0
thread block = 2,33,0
thread block = 3,33,0
thread block = 4,33,0
thread block = 5,33,0
thread block = 6,33,0
thread block = 7,33,0
thread block = 8,33,0
thread block = 9,33,0
thread block = 10,33,0
thread block = 11,33,0
thread block = 12,33,0
thread block = 13,33,0
thread block = 14,33,0
thread block = 15,33,0
thread block = 16,33,0
thread block = 17,33,0
thread block = 18,33,0
thread block = 19,33,0
thread block = 20,33,0
thread block = 21,33,0
thread block = 22,33,0
thread block = 23,33,0
thread block = 24,33,0
thread block = 25,33,0
thread block = 26,33,0
thread block = 27,33,0
thread block = 28,33,0
thread block = 29,33,0
thread block = 30,33,0
thread block = 31,33,0
thread block = 32,33,0
thread block = 33,33,0
thread block = 34,33,0
thread block = 35,33,0
thread block = 36,33,0
thread block = 37,33,0
thread block = 38,33,0
thread block = 39,33,0
thread block = 40,33,0
thread block = 41,33,0
thread block = 42,33,0
thread block = 0,34,0
thread block = 1,34,0
thread block = 2,34,0
thread block = 3,34,0
thread block = 4,34,0
thread block = 5,34,0
thread block = 6,34,0
thread block = 7,34,0
thread block = 8,34,0
thread block = 9,34,0
thread block = 10,34,0
thread block = 11,34,0
thread block = 12,34,0
thread block = 13,34,0
thread block = 14,34,0
thread block = 15,34,0
thread block = 16,34,0
thread block = 17,34,0
thread block = 18,34,0
thread block = 19,34,0
thread block = 20,34,0
thread block = 21,34,0
thread block = 22,34,0
thread block = 23,34,0
thread block = 24,34,0
thread block = 25,34,0
thread block = 26,34,0
thread block = 27,34,0
thread block = 28,34,0
thread block = 29,34,0
thread block = 30,34,0
thread block = 31,34,0
thread block = 32,34,0
thread block = 33,34,0
thread block = 34,34,0
thread block = 35,34,0
thread block = 36,34,0
thread block = 37,34,0
thread block = 38,34,0
thread block = 39,34,0
thread block = 40,34,0
thread block = 41,34,0
thread block = 42,34,0
thread block = 0,35,0
thread block = 1,35,0
thread block = 2,35,0
thread block = 3,35,0
thread block = 4,35,0
thread block = 5,35,0
thread block = 6,35,0
thread block = 7,35,0
thread block = 8,35,0
thread block = 9,35,0
thread block = 10,35,0
thread block = 11,35,0
thread block = 12,35,0
thread block = 13,35,0
thread block = 14,35,0
thread block = 15,35,0
thread block = 16,35,0
thread block = 17,35,0
thread block = 18,35,0
thread block = 19,35,0
thread block = 20,35,0
thread block = 21,35,0
thread block = 22,35,0
thread block = 23,35,0
thread block = 24,35,0
thread block = 25,35,0
thread block = 26,35,0
thread block = 27,35,0
thread block = 28,35,0
thread block = 29,35,0
thread block = 30,35,0
thread block = 31,35,0
thread block = 32,35,0
thread block = 33,35,0
thread block = 34,35,0
thread block = 35,35,0
thread block = 36,35,0
thread block = 37,35,0
thread block = 38,35,0
thread block = 39,35,0
thread block = 40,35,0
thread block = 41,35,0
thread block = 42,35,0
thread block = 0,36,0
thread block = 1,36,0
thread block = 2,36,0
thread block = 3,36,0
thread block = 4,36,0
thread block = 5,36,0
thread block = 6,36,0
thread block = 7,36,0
thread block = 8,36,0
thread block = 9,36,0
thread block = 10,36,0
thread block = 11,36,0
thread block = 12,36,0
thread block = 13,36,0
thread block = 14,36,0
thread block = 15,36,0
thread block = 16,36,0
thread block = 17,36,0
thread block = 18,36,0
thread block = 19,36,0
thread block = 20,36,0
thread block = 21,36,0
thread block = 22,36,0
thread block = 23,36,0
thread block = 24,36,0
thread block = 25,36,0
thread block = 26,36,0
thread block = 27,36,0
thread block = 28,36,0
thread block = 29,36,0
thread block = 30,36,0
thread block = 31,36,0
thread block = 32,36,0
thread block = 33,36,0
thread block = 34,36,0
thread block = 35,36,0
thread block = 36,36,0
thread block = 37,36,0
thread block = 38,36,0
thread block = 39,36,0
thread block = 40,36,0
thread block = 41,36,0
thread block = 42,36,0
thread block = 0,37,0
thread block = 1,37,0
thread block = 2,37,0
thread block = 3,37,0
thread block = 4,37,0
thread block = 5,37,0
thread block = 6,37,0
thread block = 7,37,0
thread block = 8,37,0
thread block = 9,37,0
thread block = 10,37,0
thread block = 11,37,0
thread block = 12,37,0
thread block = 13,37,0
thread block = 14,37,0
thread block = 15,37,0
thread block = 16,37,0
thread block = 17,37,0
thread block = 18,37,0
thread block = 19,37,0
thread block = 20,37,0
thread block = 21,37,0
thread block = 22,37,0
thread block = 23,37,0
thread block = 24,37,0
thread block = 25,37,0
thread block = 26,37,0
thread block = 27,37,0
thread block = 28,37,0
thread block = 29,37,0
thread block = 30,37,0
thread block = 31,37,0
thread block = 32,37,0
thread block = 33,37,0
thread block = 34,37,0
thread block = 35,37,0
thread block = 36,37,0
thread block = 37,37,0
thread block = 38,37,0
thread block = 39,37,0
thread block = 40,37,0
thread block = 41,37,0
thread block = 42,37,0
thread block = 0,38,0
thread block = 1,38,0
thread block = 2,38,0
thread block = 3,38,0
thread block = 4,38,0
thread block = 5,38,0
thread block = 6,38,0
thread block = 7,38,0
thread block = 8,38,0
thread block = 9,38,0
thread block = 10,38,0
thread block = 11,38,0
thread block = 12,38,0
thread block = 13,38,0
thread block = 14,38,0
thread block = 15,38,0
thread block = 16,38,0
thread block = 17,38,0
thread block = 18,38,0
thread block = 19,38,0
thread block = 20,38,0
thread block = 21,38,0
thread block = 22,38,0
thread block = 23,38,0
thread block = 24,38,0
thread block = 25,38,0
thread block = 26,38,0
thread block = 27,38,0
thread block = 28,38,0
thread block = 29,38,0
thread block = 30,38,0
thread block = 31,38,0
thread block = 32,38,0
thread block = 33,38,0
thread block = 34,38,0
thread block = 35,38,0
thread block = 36,38,0
thread block = 37,38,0
thread block = 38,38,0
thread block = 39,38,0
thread block = 40,38,0
thread block = 41,38,0
thread block = 42,38,0
thread block = 0,39,0
thread block = 1,39,0
thread block = 2,39,0
thread block = 3,39,0
thread block = 4,39,0
thread block = 5,39,0
thread block = 6,39,0
thread block = 7,39,0
thread block = 8,39,0
thread block = 9,39,0
thread block = 10,39,0
thread block = 11,39,0
thread block = 12,39,0
thread block = 13,39,0
thread block = 14,39,0
thread block = 15,39,0
thread block = 16,39,0
thread block = 17,39,0
thread block = 18,39,0
thread block = 19,39,0
thread block = 20,39,0
thread block = 21,39,0
thread block = 22,39,0
thread block = 23,39,0
thread block = 24,39,0
thread block = 25,39,0
thread block = 26,39,0
thread block = 27,39,0
thread block = 28,39,0
thread block = 29,39,0
thread block = 30,39,0
thread block = 31,39,0
thread block = 32,39,0
thread block = 33,39,0
thread block = 34,39,0
thread block = 35,39,0
thread block = 36,39,0
thread block = 37,39,0
thread block = 38,39,0
thread block = 39,39,0
thread block = 40,39,0
thread block = 41,39,0
thread block = 42,39,0
thread block = 0,40,0
thread block = 1,40,0
thread block = 2,40,0
thread block = 3,40,0
thread block = 4,40,0
thread block = 5,40,0
thread block = 6,40,0
thread block = 7,40,0
thread block = 8,40,0
thread block = 9,40,0
thread block = 10,40,0
thread block = 11,40,0
thread block = 12,40,0
thread block = 13,40,0
thread block = 14,40,0
thread block = 15,40,0
thread block = 16,40,0
thread block = 17,40,0
thread block = 18,40,0
thread block = 19,40,0
thread block = 20,40,0
thread block = 21,40,0
thread block = 22,40,0
thread block = 23,40,0
thread block = 24,40,0
thread block = 25,40,0
thread block = 26,40,0
thread block = 27,40,0
thread block = 28,40,0
thread block = 29,40,0
thread block = 30,40,0
thread block = 31,40,0
thread block = 32,40,0
thread block = 33,40,0
thread block = 34,40,0
thread block = 35,40,0
thread block = 36,40,0
thread block = 37,40,0
thread block = 38,40,0
thread block = 39,40,0
thread block = 40,40,0
thread block = 41,40,0
thread block = 42,40,0
thread block = 0,41,0
thread block = 1,41,0
thread block = 2,41,0
thread block = 3,41,0
thread block = 4,41,0
thread block = 5,41,0
thread block = 6,41,0
thread block = 7,41,0
thread block = 8,41,0
thread block = 9,41,0
thread block = 10,41,0
thread block = 11,41,0
thread block = 12,41,0
thread block = 13,41,0
thread block = 14,41,0
thread block = 15,41,0
thread block = 16,41,0
thread block = 17,41,0
thread block = 18,41,0
thread block = 19,41,0
thread block = 20,41,0
thread block = 21,41,0
thread block = 22,41,0
thread block = 23,41,0
thread block = 24,41,0
thread block = 25,41,0
thread block = 26,41,0
thread block = 27,41,0
thread block = 28,41,0
thread block = 29,41,0
thread block = 30,41,0
thread block = 31,41,0
thread block = 32,41,0
thread block = 33,41,0
thread block = 34,41,0
thread block = 35,41,0
thread block = 36,41,0
thread block = 37,41,0
thread block = 38,41,0
thread block = 39,41,0
thread block = 40,41,0
thread block = 41,41,0
thread block = 42,41,0
thread block = 0,42,0
thread block = 1,42,0
thread block = 2,42,0
thread block = 3,42,0
thread block = 4,42,0
thread block = 5,42,0
thread block = 6,42,0
thread block = 7,42,0
thread block = 8,42,0
thread block = 9,42,0
thread block = 10,42,0
thread block = 11,42,0
thread block = 12,42,0
thread block = 13,42,0
thread block = 14,42,0
thread block = 15,42,0
thread block = 16,42,0
thread block = 17,42,0
thread block = 18,42,0
thread block = 19,42,0
thread block = 20,42,0
thread block = 21,42,0
thread block = 22,42,0
thread block = 23,42,0
thread block = 24,42,0
thread block = 25,42,0
thread block = 26,42,0
thread block = 27,42,0
thread block = 28,42,0
thread block = 29,42,0
thread block = 30,42,0
thread block = 31,42,0
thread block = 32,42,0
thread block = 33,42,0
thread block = 34,42,0
thread block = 35,42,0
thread block = 36,42,0
thread block = 37,42,0
thread block = 38,42,0
thread block = 39,42,0
thread block = 40,42,0
thread block = 41,42,0
thread block = 42,42,0
Destroy streams for kernel 1: size 0
kernel_name = _Z14calculate_tempiPfS_S_iiiiffffff 
kernel_launch_uid = 1 
kernel_stream_id = 0
gpu_sim_cycle = 250858
gpu_sim_insn = 89394016
gpu_ipc =     356.3531
gpu_tot_sim_cycle = 250858
gpu_tot_sim_insn = 89394016
gpu_tot_ipc =     356.3531
gpu_tot_issued_cta = 1849
gpu_occupancy = 97.4962% 
gpu_tot_occupancy = 97.4962% 
max_total_param_size = 0
gpu_stall_dramfull = 0
gpu_stall_icnt2sh    = 266
partiton_level_parallism =       0.4872
partiton_level_parallism_total  =       0.4872
partiton_level_parallism_util =       1.2650
partiton_level_parallism_util_total  =       1.2650
L2_BW  =      51.7398 GB/Sec
L2_BW_total  =      51.7398 GB/Sec
gpu_total_sim_rate=2979800

========= Core cache stats =========
L1I_cache:
	L1I_total_cache_accesses = 0
	L1I_total_cache_misses = 0
	L1I_total_cache_pending_hits = 0
	L1I_total_cache_reservation_fails = 0
L1D_cache:
	L1D_cache_core[0]: Access = 14476, Miss = 8464, Miss_rate = 0.585, Pending_hits = 5248, Reservation_fails = 9323
	L1D_cache_core[1]: Access = 14560, Miss = 8302, Miss_rate = 0.570, Pending_hits = 5479, Reservation_fails = 8303
	L1D_cache_core[2]: Access = 14136, Miss = 7846, Miss_rate = 0.555, Pending_hits = 5501, Reservation_fails = 8539
	L1D_cache_core[3]: Access = 14408, Miss = 7959, Miss_rate = 0.552, Pending_hits = 5492, Reservation_fails = 8043
	L1D_cache_core[4]: Access = 14668, Miss = 7547, Miss_rate = 0.515, Pending_hits = 5820, Reservation_fails = 6825
	L1D_cache_core[5]: Access = 14324, Miss = 8396, Miss_rate = 0.586, Pending_hits = 5299, Reservation_fails = 9154
	L1D_cache_core[6]: Access = 14832, Miss = 8893, Miss_rate = 0.600, Pending_hits = 5387, Reservation_fails = 9516
	L1D_cache_core[7]: Access = 14504, Miss = 8261, Miss_rate = 0.570, Pending_hits = 5350, Reservation_fails = 9583
	L1D_cache_core[8]: Access = 14420, Miss = 8519, Miss_rate = 0.591, Pending_hits = 5353, Reservation_fails = 10677
	L1D_cache_core[9]: Access = 14344, Miss = 8072, Miss_rate = 0.563, Pending_hits = 5594, Reservation_fails = 9199
	L1D_cache_core[10]: Access = 14516, Miss = 8211, Miss_rate = 0.566, Pending_hits = 5455, Reservation_fails = 8115
	L1D_cache_core[11]: Access = 14292, Miss = 8013, Miss_rate = 0.561, Pending_hits = 5621, Reservation_fails = 8593
	L1D_cache_core[12]: Access = 14236, Miss = 7780, Miss_rate = 0.547, Pending_hits = 5545, Reservation_fails = 7219
	L1D_cache_core[13]: Access = 14476, Miss = 8186, Miss_rate = 0.565, Pending_hits = 5713, Reservation_fails = 8704
	L1D_cache_core[14]: Access = 14048, Miss = 7768, Miss_rate = 0.553, Pending_hits = 5636, Reservation_fails = 9718
	L1D_total_cache_accesses = 216240
	L1D_total_cache_misses = 122217
	L1D_total_cache_miss_rate = 0.5652
	L1D_total_cache_pending_hits = 82493
	L1D_total_cache_reservation_fails = 131511
	L1D_cache_data_port_util = 0.003
	L1D_cache_fill_port_util = 0.021
L1C_cache:
	L1C_total_cache_accesses = 0
	L1C_total_cache_misses = 0
	L1C_total_cache_pending_hits = 0
	L1C_total_cache_reservation_fails = 0
L1T_cache:
	L1T_total_cache_accesses = 0
	L1T_total_cache_misses = 0
	L1T_total_cache_pending_hits = 0
	L1T_total_cache_reservation_fails = 0

Total_core_cache_stats:
	Total_core_cache_stats_breakdown[GLOBAL_ACC_R][HIT] = 11530
	Total_core_cache_stats_breakdown[GLOBAL_ACC_R][HIT_RESERVED] = 82493
	Total_core_cache_stats_breakdown[GLOBAL_ACC_R][MISS] = 78697
	Total_core_cache_stats_breakdown[GLOBAL_ACC_R][RESERVATION_FAIL] = 131511
	Total_core_cache_stats_breakdown[GLOBAL_ACC_R][SECTOR_MISS] = 0
	Total_core_cache_stats_breakdown[GLOBAL_ACC_R][MSHR_HIT] = 82493
	Total_core_cache_stats_breakdown[LOCAL_ACC_R][HIT] = 0
	Total_core_cache_stats_breakdown[LOCAL_ACC_R][HIT_RESERVED] = 0
	Total_core_cache_stats_breakdown[LOCAL_ACC_R][MISS] = 0
	Total_core_cache_stats_breakdown[LOCAL_ACC_R][RESERVATION_FAIL] = 0
	Total_core_cache_stats_breakdown[LOCAL_ACC_R][SECTOR_MISS] = 0
	Total_core_cache_stats_breakdown[LOCAL_ACC_R][MSHR_HIT] = 0
	Total_core_cache_stats_breakdown[CONST_ACC_R][HIT] = 0
	Total_core_cache_stats_breakdown[CONST_ACC_R][HIT_RESERVED] = 0
	Total_core_cache_stats_breakdown[CONST_ACC_R][MISS] = 0
	Total_core_cache_stats_breakdown[CONST_ACC_R][RESERVATION_FAIL] = 0
	Total_core_cache_stats_breakdown[CONST_ACC_R][SECTOR_MISS] = 0
	Total_core_cache_stats_breakdown[CONST_ACC_R][MSHR_HIT] = 0
	Total_core_cache_stats_breakdown[TEXTURE_ACC_R][HIT] = 0
	Total_core_cache_stats_breakdown[TEXTURE_ACC_R][HIT_RESERVED] = 0
	Total_core_cache_stats_breakdown[TEXTURE_ACC_R][MISS] = 0
	Total_core_cache_stats_breakdown[TEXTURE_ACC_R][RESERVATION_FAIL] = 0
	Total_core_cache_stats_breakdown[TEXTURE_ACC_R][SECTOR_MISS] = 0
	Total_core_cache_stats_breakdown[TEXTURE_ACC_R][MSHR_HIT] = 0
	Total_core_cache_stats_breakdown[GLOBAL_ACC_W][HIT] = 0
	Total_core_cache_stats_breakdown[GLOBAL_ACC_W][HIT_RESERVED] = 0
	Total_core_cache_stats_breakdown[GLOBAL_ACC_W][MISS] = 43520
	Total_core_cache_stats_breakdown[GLOBAL_ACC_W][RESERVATION_FAIL] = 0
	Total_core_cache_stats_breakdown[GLOBAL_ACC_W][SECTOR_MISS] = 0
	Total_core_cache_stats_breakdown[GLOBAL_ACC_W][MSHR_HIT] = 0
	Total_core_cache_stats_breakdown[LOCAL_ACC_W][HIT] = 0
	Total_core_cache_stats_breakdown[LOCAL_ACC_W][HIT_RESERVED] = 0
	Total_core_cache_stats_breakdown[LOCAL_ACC_W][MISS] = 0
	Total_core_cache_stats_breakdown[LOCAL_ACC_W][RESERVATION_FAIL] = 0
	Total_core_cache_stats_breakdown[LOCAL_ACC_W][SECTOR_MISS] = 0
	Total_core_cache_stats_breakdown[LOCAL_ACC_W][MSHR_HIT] = 0
	Total_core_cache_stats_breakdown[L1_WRBK_ACC][HIT] = 0
	Total_core_cache_stats_breakdown[L1_WRBK_ACC][HIT_RESERVED] = 0
	Total_core_cache_stats_breakdown[L1_WRBK_ACC][MISS] = 0
	Total_core_cache_stats_breakdown[L1_WRBK_ACC][RESERVATION_FAIL] = 0
	Total_core_cache_stats_breakdown[L1_WRBK_ACC][SECTOR_MISS] = 0
	Total_core_cache_stats_breakdown[L1_WRBK_ACC][MSHR_HIT] = 0
	Total_core_cache_stats_breakdown[L2_WRBK_ACC][HIT] = 0
	Total_core_cache_stats_breakdown[L2_WRBK_ACC][HIT_RESERVED] = 0
	Total_core_cache_stats_breakdown[L2_WRBK_ACC][MISS] = 0
	Total_core_cache_stats_breakdown[L2_WRBK_ACC][RESERVATION_FAIL] = 0
	Total_core_cache_stats_breakdown[L2_WRBK_ACC][SECTOR_MISS] = 0
	Total_core_cache_stats_breakdown[L2_WRBK_ACC][MSHR_HIT] = 0
	Total_core_cache_stats_breakdown[INST_ACC_R][HIT] = 0
	Total_core_cache_stats_breakdown[INST_ACC_R][HIT_RESERVED] = 0
	Total_core_cache_stats_breakdown[INST_ACC_R][MISS] = 0
	Total_core_cache_stats_breakdown[INST_ACC_R][RESERVATION_FAIL] = 0
	Total_core_cache_stats_breakdown[INST_ACC_R][SECTOR_MISS] = 0
	Total_core_cache_stats_breakdown[INST_ACC_R][MSHR_HIT] = 0
	Total_core_cache_stats_breakdown[L1_WR_ALLOC_R][HIT] = 0
	Total_core_cache_stats_breakdown[L1_WR_ALLOC_R][HIT_RESERVED] = 0
	Total_core_cache_stats_breakdown[L1_WR_ALLOC_R][MISS] = 0
	Total_core_cache_stats_breakdown[L1_WR_ALLOC_R][RESERVATION_FAIL] = 0
	Total_core_cache_stats_breakdown[L1_WR_ALLOC_R][SECTOR_MISS] = 0
	Total_core_cache_stats_breakdown[L1_WR_ALLOC_R][MSHR_HIT] = 0
	Total_core_cache_stats_breakdown[L2_WR_ALLOC_R][HIT] = 0
	Total_core_cache_stats_breakdown[L2_WR_ALLOC_R][HIT_RESERVED] = 0
	Total_core_cache_stats_breakdown[L2_WR_ALLOC_R][MISS] = 0
	Total_core_cache_stats_breakdown[L2_WR_ALLOC_R][RESERVATION_FAIL] = 0
	Total_core_cache_stats_breakdown[L2_WR_ALLOC_R][SECTOR_MISS] = 0
	Total_core_cache_stats_breakdown[L2_WR_ALLOC_R][MSHR_HIT] = 0
	Total_core_cache_stats_breakdown[GLOBAL_ACC_R][TOTAL_ACCESS] = 172720
	Total_core_cache_stats_breakdown[GLOBAL_ACC_W][TOTAL_ACCESS] = 43520

Total_core_cache_fail_stats:
	Total_core_cache_fail_stats_breakdown[GLOBAL_ACC_R][LINE_ALLOC_FAIL] = 129258
	Total_core_cache_fail_stats_breakdown[GLOBAL_ACC_R][MSHR_ENRTY_FAIL] = 2253
ctas_completed 1849, Shader 0 warp_id issue ditsribution:
warp_id:
0, 1, 2, 3, 4, 5, 6, 7, 8, 9, 10, 11, 12, 13, 14, 15, 16, 17, 18, 19, 20, 21, 22, 23, 24, 25, 26, 27, 28, 29, 30, 31, 32, 33, 34, 35, 36, 37, 38, 39, 40, 41, 42, 43, 44, 45, 46, 47, 
distro:
[...]
dram[3]:       9436      9551      9154     10305     14112     14731     17054     16504    none      none        9443     10037      9001      9429      9143      9094
dram[4]:       9636      9564      8978     10213     14347     14855     17219     16441    none      none       10344     10521      8443      9159      9036      9268
dram[5]:       9514      9524      8893      9728     14576     14742     17164     17989    none      none       10398     10643      8793      9223      9133      9211
maximum mf latency per bank:
dram[0]:       1370      1427       960       478      1340      1334      1238      1229       482       463       455       400       495       459       399       392
dram[1]:       1214      1317       850       423      1253      1299      1244      1189       464       472       450       446       459       372       401       391
dram[2]:        464       554       342       396       559       559       539       552       351       347       338       362       355       374       355       351
dram[3]:        460       406       344       344       390       525       515       517       317       336       338       363       401       425       377       365
dram[4]:        406       380       409       341       404       408       402       335       343       309       325       346       420       386       364       342
dram[5]:        412       371       354       333       440       420       416       348       348       359       325       390       360       362       364       361
Memory Partition 0: 
Cache L2_bank_000:
MSHR contents

Cache L2_bank_001:
MSHR contents

In Dram Latency Queue (total = 0): 
DRAM[0]: 16 bks, busW=4 BL=8 CL=12, tRRD=6 tCCD=2, tRCD=12 tRAS=28 tRP=12 tRC=40
n_cmd=775729 n_nop=756128 n_act=355 n_pre=339 n_ref_event=0 n_req=17643 n_rd=16376 n_rd_L2_A=0 n_write=0 n_wr_bk=2534 bw_util=0.04875
n_activity=97015 dram_eff=0.3898
bk0: 960a 772601i bk1: 960a 772671i bk2: 960a 773204i bk3: 960a 773446i bk4: 1016a 773622i bk5: 1032a 773968i bk6: 1152a 773378i bk7: 1152a 773508i bk8: 1152a 773510i bk9: 1152a 773653i bk10: 1024a 773134i bk11: 1016a 772668i bk12: 960a 773046i bk13: 960a 773186i bk14: 960a 772523i bk15: 960a 772389i 

------------------------------------------------------------------------

Row_Buffer_Locality = 0.979879
Row_Buffer_Locality_read = 0.987665
Row_Buffer_Locality_write = 0.879242
Bank_Level_Parallism = 1.262490
Bank_Level_Parallism_Col = 1.246356
Bank_Level_Parallism_Ready = 1.020452
write_to_read_ratio_blp_rw_average = 0.498976
GrpLevelPara = 1.187975 

BW Util details:
bwutil = 0.048754 
total_CMD = 775729 
util_bw = 37820 
Wasted_Col = 17259 
Wasted_Row = 2645 
Idle = 718005 

BW Util Bottlenecks: 
RCDc_limit = 2075 
RCDWRc_limit = 933 
WTRc_limit = 1818 
RTWc_limit = 13022 
CCDLc_limit = 3874 
rwq = 0 
CCDLc_limit_alone = 2826 
WTRc_limit_alone = 1764 
RTWc_limit_alone = 12028 

Commands details: 
total_CMD = 775729 
n_nop = 756128 
Read = 16376 
Write = 0 
L2_Alloc = 0 
L2_WB = 2534 
n_act = 355 
n_pre = 339 
n_ref = 0 
n_req = 17643 
total_req = 18910 

Dual Bus Interface Util: 
issued_total_row = 694 
issued_total_col = 18910 
Row_Bus_Util =  0.000895 
CoL_Bus_Util = 0.024377 
Either_Row_CoL_Bus_Util = 0.025268 
Issued_on_Two_Bus_Simul_Util = 0.000004 
issued_two_Eff = 0.000153 
queue_avg = 0.039797 


dram_util_bins: 0 0 0 0 0 0 0 0 0 0
dram_eff_bins: 0 0 0 0 0 0 0 0 0 0
mrqq: max=19 avg=0.0397974
Memory Partition 1: 
Cache L2_bank_002:
MSHR contents

Cache L2_bank_003:
MSHR contents

In Dram Latency Queue (total = 0): 
DRAM[1]: 16 bks, busW=4 BL=8 CL=12, tRRD=6 tCCD=2, tRCD=12 tRAS=28 tRP=12 tRC=40
n_cmd=775729 n_nop=756122 n_act=361 n_pre=345 n_ref_event=0 n_req=17640 n_rd=16376 n_rd_L2_A=0 n_write=0 n_wr_bk=2528 bw_util=0.04874
n_activity=97704 dram_eff=0.387
bk0: 960a 772791i bk1: 960a 773019i bk2: 960a 773517i bk3: 960a 773423i bk4: 1016a 773631i bk5: 1032a 773736i bk6: 1152a 773503i bk7: 1152a 773354i bk8: 1152a 773574i bk9: 1152a 774081i bk10: 1024a 772941i bk11: 1016a 772743i bk12: 960a 772909i bk13: 960a 772916i bk14: 960a 772578i bk15: 960a 772375i 

------------------------------------------------------------------------

Row_Buffer_Locality = 0.979535
Row_Buffer_Locality_read = 0.987482
Row_Buffer_Locality_write = 0.876582
Bank_Level_Parallism = 1.243149
Bank_Level_Parallism_Col = 1.225796
Bank_Level_Parallism_Ready = 1.019192
write_to_read_ratio_blp_rw_average = 0.502430
GrpLevelPara = 1.178604 

BW Util details:
bwutil = 0.048739 
total_CMD = 775729 
util_bw = 37808 
Wasted_Col = 17628 
Wasted_Row = 2711 
Idle = 717582 

BW Util Bottlenecks: 
RCDc_limit = 2114 
RCDWRc_limit = 952 
WTRc_limit = 1673 
RTWc_limit = 13300 
CCDLc_limit = 3755 
rwq = 0 
CCDLc_limit_alone = 2763 
WTRc_limit_alone = 1606 
RTWc_limit_alone = 12375 

Commands details: 
total_CMD = 775729 
n_nop = 756122 
Read = 16376 
Write = 0 
L2_Alloc = 0 
L2_WB = 2528 
n_act = 361 
n_pre = 345 
n_ref = 0 
n_req = 17640 
total_req = 18904 

Dual Bus Interface Util: 
issued_total_row = 706 
issued_total_col = 18904 
Row_Bus_Util =  0.000910 
CoL_Bus_Util = 0.024369 
Either_Row_CoL_Bus_Util = 0.025276 
Issued_on_Two_Bus_Simul_Util = 0.000004 
issued_two_Eff = 0.000153 
queue_avg = 0.034890 


dram_util_bins: 0 0 0 0 0 0 0 0 0 0
dram_eff_bins: 0 0 0 0 0 0 0 0 0 0
mrqq: max=9 avg=0.0348898
Memory Partition 2: 
Cache L2_bank_004:
MSHR contents

Cache L2_bank_005:
MSHR contents

In Dram Latency Queue (total = 0): 
DRAM[2]: 16 bks, busW=4 BL=8 CL=12, tRRD=6 tCCD=2, tRCD=12 tRAS=28 tRP=12 tRC=40
n_cmd=775729 n_nop=766569 n_act=187 n_pre=171 n_ref_event=0 n_req=8501 n_rd=8200 n_rd_L2_A=0 n_write=0 n_wr_bk=602 bw_util=0.02269
n_activity=48036 dram_eff=0.3665
bk0: 480a 774986i bk1: 480a 775057i bk2: 480a 774961i bk3: 480a 774873i bk4: 512a 775143i bk5: 512a 775156i bk6: 576a 775164i bk7: 576a 775065i bk8: 576a 775479i bk9: 576a 775515i bk10: 520a 775101i bk11: 512a 775139i bk12: 480a 775300i bk13: 480a 775325i bk14: 480a 774620i bk15: 480a 774842i 

------------------------------------------------------------------------

Row_Buffer_Locality = 0.978003
Row_Buffer_Locality_read = 0.984512
Row_Buffer_Locality_write = 0.800664
Bank_Level_Parallism = 1.090670
Bank_Level_Parallism_Col = 1.085019
Bank_Level_Parallism_Ready = 1.005111
write_to_read_ratio_blp_rw_average = 0.268132
GrpLevelPara = 1.078139 

BW Util details:
bwutil = 0.022693 
total_CMD = 775729 
util_bw = 17604 
Wasted_Col = 4462 
Wasted_Row = 1752 
Idle = 751911 

BW Util Bottlenecks: 
RCDc_limit = 1446 
RCDWRc_limit = 379 
WTRc_limit = 124 
RTWc_limit = 2072 
CCDLc_limit = 896 
rwq = 0 
CCDLc_limit_alone = 851 
WTRc_limit_alone = 122 
RTWc_limit_alone = 2029 

Commands details: 
total_CMD = 775729 
n_nop = 766569 
Read = 8200 
Write = 0 
L2_Alloc = 0 
L2_WB = 602 
n_act = 187 
n_pre = 171 
n_ref = 0 
n_req = 8501 
total_req = 8802 

Dual Bus Interface Util: 
issued_total_row = 358 
issued_total_col = 8802 
Row_Bus_Util =  0.000462 
CoL_Bus_Util = 0.011347 
Either_Row_CoL_Bus_Util = 0.011808 
Issued_on_Two_Bus_Simul_Util = 0.000000 
issued_two_Eff = 0.000000 
queue_avg = 0.014609 


dram_util_bins: 0 0 0 0 0 0 0 0 0 0
dram_eff_bins: 0 0 0 0 0 0 0 0 0 0
mrqq: max=8 avg=0.0146095
Memory Partition 3: 
Cache L2_bank_006:
MSHR contents

Cache L2_bank_007:
MSHR contents

In Dram Latency Queue (total = 0): 
DRAM[3]: 16 bks, busW=4 BL=8 CL=12, tRRD=6 tCCD=2, tRCD=12 tRAS=28 tRP=12 tRC=40
n_cmd=775729 n_nop=766588 n_act=180 n_pre=164 n_ref_event=0 n_req=8499 n_rd=8200 n_rd_L2_A=0 n_write=0 n_wr_bk=598 bw_util=0.02268
n_activity=47628 dram_eff=0.3694
bk0: 480a 775100i bk1: 480a 775051i bk2: 480a 775016i bk3: 480a 774946i bk4: 512a 775215i bk5: 512a 775172i bk6: 576a 775119i bk7: 576a 775019i bk8: 576a 775462i bk9: 576a 775512i bk10: 520a 775157i bk11: 512a 775124i bk12: 480a 775328i bk13: 480a 775322i bk14: 480a 774646i bk15: 480a 774823i 

------------------------------------------------------------------------

Row_Buffer_Locality = 0.978821
Row_Buffer_Locality_read = 0.984878
Row_Buffer_Locality_write = 0.812709
Bank_Level_Parallism = 1.084013
Bank_Level_Parallism_Col = 1.080428
Bank_Level_Parallism_Ready = 1.007273
write_to_read_ratio_blp_rw_average = 0.265320
GrpLevelPara = 1.066360 

BW Util details:
bwutil = 0.022683 
total_CMD = 775729 
util_bw = 17596 
Wasted_Col = 4369 
Wasted_Row = 1729 
Idle = 752035 

BW Util Bottlenecks: 
RCDc_limit = 1373 
RCDWRc_limit = 373 
WTRc_limit = 125 
RTWc_limit = 2038 
CCDLc_limit = 961 
rwq = 0 
CCDLc_limit_alone = 901 
WTRc_limit_alone = 123 
RTWc_limit_alone = 1980 

Commands details: 
total_CMD = 775729 
n_nop = 766588 
Read = 8200 
Write = 0 
L2_Alloc = 0 
L2_WB = 598 
n_act = 180 
n_pre = 164 
n_ref = 0 
n_req = 8499 
total_req = 8798 

Dual Bus Interface Util: 
issued_total_row = 344 
issued_total_col = 8798 
Row_Bus_Util =  0.000443 
CoL_Bus_Util = 0.011342 
Either_Row_CoL_Bus_Util = 0.011784 
Issued_on_Two_Bus_Simul_Util = 0.000001 
issued_two_Eff = 0.000109 
queue_avg = 0.013944 


dram_util_bins: 0 0 0 0 0 0 0 0 0 0
dram_eff_bins: 0 0 0 0 0 0 0 0 0 0
mrqq: max=10 avg=0.0139443
Memory Partition 4: 
Cache L2_bank_008:
MSHR contents

Cache L2_bank_009:
MSHR contents

In Dram Latency Queue (total = 0): 
DRAM[4]: 16 bks, busW=4 BL=8 CL=12, tRRD=6 tCCD=2, tRCD=12 tRAS=28 tRP=12 tRC=40
n_cmd=775729 n_nop=766583 n_act=189 n_pre=173 n_ref_event=0 n_req=8488 n_rd=8192 n_rd_L2_A=0 n_write=0 n_wr_bk=592 bw_util=0.02265
n_activity=47659 dram_eff=0.3686
bk0: 480a 775002i bk1: 480a 775169i bk2: 480a 775032i bk3: 480a 774758i bk4: 512a 775226i bk5: 512a 775143i bk6: 576a 774941i bk7: 576a 775087i bk8: 576a 775467i bk9: 576a 775488i bk10: 512a 775107i bk11: 512a 775205i bk12: 480a 775326i bk13: 480a 775341i bk14: 480a 774814i bk15: 480a 774889i 

------------------------------------------------------------------------

Row_Buffer_Locality = 0.977733
Row_Buffer_Locality_read = 0.984375
Row_Buffer_Locality_write = 0.793919
Bank_Level_Parallism = 1.092365
Bank_Level_Parallism_Col = 1.082501
Bank_Level_Parallism_Ready = 1.008078
write_to_read_ratio_blp_rw_average = 0.253851
GrpLevelPara = 1.067027 

BW Util details:
bwutil = 0.022647 
total_CMD = 775729 
util_bw = 17568 
Wasted_Col = 4260 
Wasted_Row = 1744 
Idle = 752157 

BW Util Bottlenecks: 
RCDc_limit = 1423 
RCDWRc_limit = 377 
WTRc_limit = 126 
RTWc_limit = 1874 
CCDLc_limit = 948 
rwq = 0 
CCDLc_limit_alone = 891 
WTRc_limit_alone = 126 
RTWc_limit_alone = 1817 

Commands details: 
total_CMD = 775729 
n_nop = 766583 
Read = 8192 
Write = 0 
L2_Alloc = 0 
L2_WB = 592 
n_act = 189 
n_pre = 173 
n_ref = 0 
n_req = 8488 
total_req = 8784 

Dual Bus Interface Util: 
issued_total_row = 362 
issued_total_col = 8784 
Row_Bus_Util =  0.000467 
CoL_Bus_Util = 0.011324 
Either_Row_CoL_Bus_Util = 0.011790 
Issued_on_Two_Bus_Simul_Util = 0.000000 
issued_two_Eff = 0.000000 
queue_avg = 0.013815 


dram_util_bins: 0 0 0 0 0 0 0 0 0 0
dram_eff_bins: 0 0 0 0 0 0 0 0 0 0
mrqq: max=7 avg=0.0138154
Memory Partition 5: 
Cache L2_bank_010:
MSHR contents

Cache L2_bank_011:
MSHR contents

In Dram Latency Queue (total = 0): 
DRAM[5]: 16 bks, busW=4 BL=8 CL=12, tRRD=6 tCCD=2, tRCD=12 tRAS=28 tRP=12 tRC=40
n_cmd=775729 n_nop=766608 n_act=178 n_pre=162 n_ref_event=0 n_req=8487 n_rd=8192 n_rd_L2_A=0 n_write=0 n_wr_bk=590 bw_util=0.02264
n_activity=47606 dram_eff=0.3689
bk0: 480a 775059i bk1: 480a 775086i bk2: 480a 775030i bk3: 480a 774902i bk4: 512a 775177i bk5: 512a 775161i bk6: 576a 775076i bk7: 576a 774937i bk8: 576a 775480i bk9: 576a 775464i bk10: 512a 775124i bk11: 512a 775099i bk12: 480a 775370i bk13: 480a 775263i bk14: 480a 774882i bk15: 480a 774806i 

------------------------------------------------------------------------

Row_Buffer_Locality = 0.979027
Row_Buffer_Locality_read = 0.984985
Row_Buffer_Locality_write = 0.813559
Bank_Level_Parallism = 1.088019
Bank_Level_Parallism_Col = 1.086995
Bank_Level_Parallism_Ready = 1.007287
write_to_read_ratio_blp_rw_average = 0.260351
GrpLevelPara = 1.071890 

BW Util details:
bwutil = 0.022642 
total_CMD = 775729 
util_bw = 17564 
Wasted_Col = 4357 
Wasted_Row = 1754 
Idle = 752054 

BW Util Bottlenecks: 
RCDc_limit = 1377 
RCDWRc_limit = 368 
WTRc_limit = 116 
RTWc_limit = 1967 
CCDLc_limit = 996 
rwq = 0 
CCDLc_limit_alone = 925 
WTRc_limit_alone = 109 
RTWc_limit_alone = 1903 

Commands details: 
total_CMD = 775729 
n_nop = 766608 
Read = 8192 
Write = 0 
L2_Alloc = 0 
L2_WB = 590 
n_act = 178 
n_pre = 162 
n_ref = 0 
n_req = 8487 
total_req = 8782 

Dual Bus Interface Util: 
issued_total_row = 340 
issued_total_col = 8782 
Row_Bus_Util =  0.000438 
CoL_Bus_Util = 0.011321 
Either_Row_CoL_Bus_Util = 0.011758 
Issued_on_Two_Bus_Simul_Util = 0.000001 
issued_two_Eff = 0.000110 
queue_avg = 0.014486 


dram_util_bins: 0 0 0 0 0 0 0 0 0 0
dram_eff_bins: 0 0 0 0 0 0 0 0 0 0
mrqq: max=8 avg=0.0144857

========= L2 cache stats =========
L2_cache_bank[0]: Access = 44631, Miss = 12288, Miss_rate = 0.275, Pending_hits = 1537, Reservation_fails = 0
L2_cache_bank[1]: Access = 45046, Miss = 12288, Miss_rate = 0.273, Pending_hits = 1758, Reservation_fails = 0
L2_cache_bank[2]: Access = 44536, Miss = 12288, Miss_rate = 0.276, Pending_hits = 1600, Reservation_fails = 0
L2_cache_bank[3]: Access = 45112, Miss = 12288, Miss_rate = 0.272, Pending_hits = 1681, Reservation_fails = 0
L2_cache_bank[4]: Access = 22404, Miss = 6144, Miss_rate = 0.274, Pending_hits = 856, Reservation_fails = 0
L2_cache_bank[5]: Access = 22450, Miss = 6144, Miss_rate = 0.274, Pending_hits = 904, Reservation_fails = 0
L2_cache_bank[6]: Access = 22324, Miss = 6144, Miss_rate = 0.275, Pending_hits = 748, Reservation_fails = 0
L2_cache_bank[7]: Access = 22505, Miss = 6144, Miss_rate = 0.273, Pending_hits = 865, Reservation_fails = 0
L2_cache_bank[8]: Access = 22123, Miss = 6144, Miss_rate = 0.278, Pending_hits = 696, Reservation_fails = 0
L2_cache_bank[9]: Access = 22442, Miss = 6144, Miss_rate = 0.274, Pending_hits = 880, Reservation_fails = 0
L2_cache_bank[10]: Access = 22266, Miss = 6144, Miss_rate = 0.276, Pending_hits = 714, Reservation_fails = 0
L2_cache_bank[11]: Access = 22469, Miss = 6144, Miss_rate = 0.273, Pending_hits = 892, Reservation_fails = 0
L2_total_cache_accesses = 358308
L2_total_cache_misses = 98304
L2_total_cache_miss_rate = 0.2744
L2_total_cache_pending_hits = 13131
L2_total_cache_reservation_fails = 0
L2_total_cache_breakdown:
	L2_cache_stats_breakdown[GLOBAL_ACC_R][HIT] = 236121
	L2_cache_stats_breakdown[GLOBAL_ACC_R][HIT_RESERVED] = 13131
	L2_cache_stats_breakdown[GLOBAL_ACC_R][MISS] = 16384
	L2_cache_stats_breakdown[GLOBAL_ACC_R][RESERVATION_FAIL] = 0
	L2_cache_stats_breakdown[GLOBAL_ACC_R][SECTOR_MISS] = 49152
	L2_cache_stats_breakdown[GLOBAL_ACC_R][MSHR_HIT] = 13131
	L2_cache_stats_breakdown[LOCAL_ACC_R][HIT] = 0
	L2_cache_stats_breakdown[LOCAL_ACC_R][HIT_RESERVED] = 0
	L2_cache_stats_breakdown[LOCAL_ACC_R][MISS] = 0
	L2_cache_stats_breakdown[LOCAL_ACC_R][RESERVATION_FAIL] = 0
	L2_cache_stats_breakdown[LOCAL_ACC_R][SECTOR_MISS] = 0
	L2_cache_stats_breakdown[LOCAL_ACC_R][MSHR_HIT] = 0
	L2_cache_stats_breakdown[CONST_ACC_R][HIT] = 0
	L2_cache_stats_breakdown[CONST_ACC_R][HIT_RESERVED] = 0
	L2_cache_stats_breakdown[CONST_ACC_R][MISS] = 0
	L2_cache_stats_breakdown[CONST_ACC_R][RESERVATION_FAIL] = 0
	L2_cache_stats_breakdown[CONST_ACC_R][SECTOR_MISS] = 0
	L2_cache_stats_breakdown[CONST_ACC_R][MSHR_HIT] = 0
	L2_cache_stats_breakdown[TEXTURE_ACC_R][HIT] = 0
	L2_cache_stats_breakdown[TEXTURE_ACC_R][HIT_RESERVED] = 0
	L2_cache_stats_breakdown[TEXTURE_ACC_R][MISS] = 0
	L2_cache_stats_breakdown[TEXTURE_ACC_R][RESERVATION_FAIL] = 0
	L2_cache_stats_breakdown[TEXTURE_ACC_R][SECTOR_MISS] = 0
	L2_cache_stats_breakdown[TEXTURE_ACC_R][MSHR_HIT] = 0
	L2_cache_stats_breakdown[GLOBAL_ACC_W][HIT] = 10752
	L2_cache_stats_breakdown[GLOBAL_ACC_W][HIT_RESERVED] = 0
	L2_cache_stats_breakdown[GLOBAL_ACC_W][MISS] = 8192
	L2_cache_stats_breakdown[GLOBAL_ACC_W][RESERVATION_FAIL] = 0
	L2_cache_stats_breakdown[GLOBAL_ACC_W][SECTOR_MISS] = 24576
	L2_cache_stats_breakdown[GLOBAL_ACC_W][MSHR_HIT] = 0
	L2_cache_stats_breakdown[LOCAL_ACC_W][HIT] = 0
	L2_cache_stats_breakdown[LOCAL_ACC_W][HIT_RESERVED] = 0
	L2_cache_stats_breakdown[LOCAL_ACC_W][MISS] = 0
	L2_cache_stats_breakdown[LOCAL_ACC_W][RESERVATION_FAIL] = 0
	L2_cache_stats_breakdown[LOCAL_ACC_W][SECTOR_MISS] = 0
	L2_cache_stats_breakdown[LOCAL_ACC_W][MSHR_HIT] = 0
	L2_cache_stats_breakdown[L1_WRBK_ACC][HIT] = 0
	L2_cache_stats_breakdown[L1_WRBK_ACC][HIT_RESERVED] = 0
	L2_cache_stats_breakdown[L1_WRBK_ACC][MISS] = 0
	L2_cache_stats_breakdown[L1_WRBK_ACC][RESERVATION_FAIL] = 0
	L2_cache_stats_breakdown[L1_WRBK_ACC][SECTOR_MISS] = 0
	L2_cache_stats_breakdown[L1_WRBK_ACC][MSHR_HIT] = 0
	L2_cache_stats_breakdown[L2_WRBK_ACC][HIT] = 0
	L2_cache_stats_breakdown[L2_WRBK_ACC][HIT_RESERVED] = 0
	L2_cache_stats_breakdown[L2_WRBK_ACC][MISS] = 0
	L2_cache_stats_breakdown[L2_WRBK_ACC][RESERVATION_FAIL] = 0
	L2_cache_stats_breakdown[L2_WRBK_ACC][SECTOR_MISS] = 0
	L2_cache_stats_breakdown[L2_WRBK_ACC][MSHR_HIT] = 0
	L2_cache_stats_breakdown[INST_ACC_R][HIT] = 0
	L2_cache_stats_breakdown[INST_ACC_R][HIT_RESERVED] = 0
	L2_cache_stats_breakdown[INST_ACC_R][MISS] = 0
	L2_cache_stats_breakdown[INST_ACC_R][RESERVATION_FAIL] = 0
	L2_cache_stats_breakdown[INST_ACC_R][SECTOR_MISS] = 0
	L2_cache_stats_breakdown[INST_ACC_R][MSHR_HIT] = 0
	L2_cache_stats_breakdown[L1_WR_ALLOC_R][HIT] = 0
	L2_cache_stats_breakdown[L1_WR_ALLOC_R][HIT_RESERVED] = 0
	L2_cache_stats_breakdown[L1_WR_ALLOC_R][MISS] = 0
	L2_cache_stats_breakdown[L1_WR_ALLOC_R][RESERVATION_FAIL] = 0
	L2_cache_stats_breakdown[L1_WR_ALLOC_R][SECTOR_MISS] = 0
	L2_cache_stats_breakdown[L1_WR_ALLOC_R][MSHR_HIT] = 0
	L2_cache_stats_breakdown[L2_WR_ALLOC_R][HIT] = 0
	L2_cache_stats_breakdown[L2_WR_ALLOC_R][HIT_RESERVED] = 0
	L2_cache_stats_breakdown[L2_WR_ALLOC_R][MISS] = 0
	L2_cache_stats_breakdown[L2_WR_ALLOC_R][RESERVATION_FAIL] = 0
	L2_cache_stats_breakdown[L2_WR_ALLOC_R][SECTOR_MISS] = 0
	L2_cache_stats_breakdown[L2_WR_ALLOC_R][MSHR_HIT] = 0
	L2_cache_stats_breakdown[GLOBAL_ACC_R][TOTAL_ACCESS] = 314788
	L2_cache_stats_breakdown[GLOBAL_ACC_W][TOTAL_ACCESS] = 43520
L2_total_cache_reservation_fail_breakdown:
L2_cache_data_port_util = 0.084
L2_cache_fill_port_util = 0.022

icnt_total_pkts_mem_to_simt=358308
icnt_total_pkts_simt_to_mem=122217
LD_mem_lat_dist  0 0 0 0 0 0 0 0 0 0 0 0 0 0 0 0 0 0 0 0 0 0 0 0 0 0 0
ST_mem_lat_dist  0 0 0 0 0 0 0 0 0 0 0 0 0 0 0 0 0 0 0 0 0 0 0 0 0 0 0
----------------------------Interconnect-DETAILS--------------------------------
Req_Network_injected_packets_num = 122217
Req_Network_cycles = 250858
Req_Network_injected_packets_per_cycle =       0.4872 
Req_Network_conflicts_per_cycle =       0.0214
Req_Network_conflicts_per_cycle_util =       0.0556
Req_Bank_Level_Parallism =       1.2650
Req_Network_in_buffer_full_per_cycle =       0.0000
Req_Network_in_buffer_avg_util =       0.0064
Req_Network_out_buffer_full_per_cycle =       0.0000
Req_Network_out_buffer_avg_util =       0.0406

Reply_Network_injected_packets_num = 358308
Reply_Network_cycles = 250858
Reply_Network_injected_packets_per_cycle =        1.4283
Reply_Network_conflicts_per_cycle =        1.8753
Reply_Network_conflicts_per_cycle_util =       2.5129
Reply_Bank_Level_Parallism =       1.9140
Reply_Network_in_buffer_full_per_cycle =       0.0011
Reply_Network_in_buffer_avg_util =       2.6198
Reply_Network_out_buffer_full_per_cycle =       0.0000
Reply_Network_out_buffer_avg_util =       0.0952
----------------------------END-of-Interconnect-DETAILS-------------------------


gpgpu_simulation_time = 0 days, 0 hrs, 0 min, 30 sec (30 sec)
gpgpu_simulation_rate = 2979800 (inst/sec)
gpgpu_simulation_rate = 8361 (cycle/sec)
gpgpu_silicon_slowdown = 135390x
GPGPU-Sim: *** simulation thread exiting ***
GPGPU-Sim: *** exit detected ***
