Accel-Sim [build accelsim-commit-9be0e3c_modified_0.0_26-02-04-01-45-14]

        *** GPGPU-Sim Simulator Version 4.2.0  [build gpgpu-sim_git-commit-6c3cf4ff_modified_0.0] ***


GPGPU-Sim: Configuration options:

-save_embedded_ptx                      0 # saves ptx files embedded in binary as <n>.ptx
-keep                                   0 # keep intermediate files created by GPGPU-Sim when interfacing with external programs
-gpgpu_ptx_save_converted_ptxplus                    0 # Saved converted ptxplus to a file
-gpgpu_occupancy_sm_number                   86 # The SM number to pass to ptxas when getting register usage for computing GPU occupancy. This parameter is required in the config.
-ptx_opcode_latency_int           4,4,4,4,21 # Opcode latencies for integers <ADD,MAX,MUL,MAD,DIV,SHFL>Default 1,1,19,25,145,32
-ptx_opcode_latency_fp           4,4,4,4,39 # Opcode latencies for single precision floating points <ADD,MAX,MUL,MAD,DIV>Default 1,1,1,1,30
-ptx_opcode_latency_dp      64,64,64,64,330 # Opcode latencies for double precision floating points <ADD,MAX,MUL,MAD,DIV>Default 8,8,8,8,335
-ptx_opcode_latency_sfu                   21 # Opcode latencies for SFU instructionsDefault 8
-ptx_opcode_latency_tesnor                   64 # Opcode latencies for Tensor instructionsDefault 64
-ptx_opcode_initiation_int            2,2,2,2,2 # Opcode initiation intervals for integers <ADD,MAX,MUL,MAD,DIV,SHFL>Default 1,1,4,4,32,4
-ptx_opcode_initiation_fp            1,1,1,1,2 # Opcode initiation intervals for single precision floating points <ADD,MAX,MUL,MAD,DIV>Default 1,1,1,1,5
-ptx_opcode_initiation_dp      64,64,64,64,130 # Opcode initiation intervals for double precision floating points <ADD,MAX,MUL,MAD,DIV>Default 8,8,8,8,130
-ptx_opcode_initiation_sfu                    8 # Opcode initiation intervals for sfu instructionsDefault 8
-ptx_opcode_initiation_tensor                   64 # Opcode initiation intervals for tensor instructionsDefault 64
-cdp_latency         7200,8000,100,12000,1600 # CDP API latency <cudaStreamCreateWithFlags, cudaGetParameterBufferV2_init_perWarp, cudaGetParameterBufferV2_perKernel, cudaLaunchDeviceV2_init_perWarp, cudaLaunchDevicV2_perKernel>Default 7200,8000,100,12000,1600
-network_mode                           2 # Interconnection network mode
-inter_config_file                   mesh # Interconnection network config file
-icnt_in_buffer_limit                  512 # in_buffer_limit
-icnt_out_buffer_limit                  512 # out_buffer_limit
-icnt_subnets                           2 # subnets
-icnt_arbiter_algo                      1 # arbiter_algo
-icnt_verbose                           0 # inct_verbose
-icnt_grant_cycles                      1 # grant_cycles
-gpgpu_ptx_use_cuobjdump                    1 # Use cuobjdump to extract ptx and sass from binaries
-gpgpu_experimental_lib_support                    0 # Try to extract code from cuda libraries [Broken because of unknown cudaGetExportTable]
-checkpoint_option                      0 #  checkpointing flag (0 = no checkpoint)
-checkpoint_kernel                      1 #  checkpointing during execution of which kernel (1- 1st kernel)
-checkpoint_CTA                         0 #  checkpointing after # of CTA (< less than total CTA)
-resume_option                          0 #  resume flag (0 = no resume)
-resume_kernel                          0 #  Resume from which kernel (1= 1st kernel)
-resume_CTA                             0 #  resume from which CTA 
-checkpoint_CTA_t                       0 #  resume from which CTA 
-checkpoint_insn_Y                      0 #  resume from which CTA 
-gpgpu_ptx_convert_to_ptxplus                    0 # Convert SASS (native ISA) to ptxplus and run ptxplus
-gpgpu_ptx_force_max_capability                   86 # Force maximum compute capability
-gpgpu_ptx_inst_debug_to_file                    0 # Dump executed instructions' debug information to file
-gpgpu_ptx_inst_debug_file       inst_debug.txt # Executed instructions' debug output file
-gpgpu_ptx_inst_debug_thread_uid                    1 # Thread UID for executed instructions' debug output
-gpgpu_simd_model                       1 # 1 = post-dominator
-gpgpu_shader_core_pipeline              1536:32 # shader core pipeline config, i.e., {<nthread>:<warpsize>}
-gpgpu_tex_cache:l1  N:4:128:256,L:R:m:N:L,T:512:8,128:2 # per-shader L1 texture cache  (READ-ONLY) config  {<nsets>:<bsize>:<assoc>,<rep>:<wr>:<alloc>:<wr_alloc>,<mshr>:<N>:<merge>,<mq>:<rf>}
-gpgpu_const_cache:l1 N:128:64:8,L:R:f:N:L,S:2:64,4 # per-shader L1 constant memory cache  (READ-ONLY) config  {<nsets>:<bsize>:<assoc>,<rep>:<wr>:<alloc>:<wr_alloc>,<mshr>:<N>:<merge>,<mq>} 
-gpgpu_cache:il1     N:64:128:16,L:R:f:N:L,S:2:48,4 # shader L1 instruction cache config  {<sector?>:<nsets>:<bsize>:<assoc>,<rep>:<wr>:<alloc>:<wr_alloc>:<set_index_fn>,<mshr>:<N>:<merge>,<mq>} 
-gpgpu_cache:dl1     N:32:128:4,L:L:m:N:H,S:64:8,8 # per-shader L1 data cache config  {<sector?>:<nsets>:<bsize>:<assoc>,<rep>:<wr>:<alloc>:<wr_alloc>:<set_index_fn>,<mshr>:<N>:<merge>,<mq>:<fifo_entry>,<data_port_width> | none}
-gpgpu_l1_cache_write_ratio                    0 # L1D write ratio
-gpgpu_l1_banks                         1 # The number of L1 cache banks
-gpgpu_l1_banks_byte_interleaving                   32 # l1 banks byte interleaving granularity
-gpgpu_l1_banks_hashing_function                    0 # l1 banks hashing function
-gpgpu_l1_latency                      35 # L1 Hit Latency
-gpgpu_smem_latency                    29 # smem Latency
-gpgpu_cache:dl1PrefL1                 none # per-shader L1 data cache config  {<sector?>:<nsets>:<bsize>:<assoc>,<rep>:<wr>:<alloc>:<wr_alloc>:<set_index_fn>,<mshr>:<N>:<merge>,<mq>:<fifo_entry>,<data_port_width> | none}
-gpgpu_cache:dl1PrefShared                 none # per-shader L1 data cache config  {<sector?>:<nsets>:<bsize>:<assoc>,<rep>:<wr>:<alloc>:<wr_alloc>:<set_index_fn>,<mshr>:<N>:<merge>,<mq>:<fifo_entry>,<data_port_width> | none}
-gpgpu_gmem_skip_L1D                    1 # global memory access skip L1D cache (implements -Xptxas -dlcm=cg, default=no skip)
-gpgpu_perfect_mem                      0 # enable perfect memory mode (no cache miss)
-n_regfile_gating_group                    4 # group of lanes that should be read/written together)
-gpgpu_clock_gated_reg_file                    0 # enable clock gated reg file for power calculations
-gpgpu_clock_gated_lanes                    0 # enable clock gated lanes for power calculations
-gpgpu_shader_registers                65536 # Number of registers per shader core. Limits number of concurrent CTAs. (default 8192)
-gpgpu_registers_per_block                65536 # Maximum number of registers per CTA. (default 8192)
-gpgpu_ignore_resources_limitation                    0 # gpgpu_ignore_resources_limitation (default 0)
-gpgpu_shader_cta                       8 # Maximum number of concurrent CTAs in shader (default 32)
-gpgpu_num_cta_barriers                   16 # Maximum number of named barriers per CTA (default 16)
-gpgpu_n_clusters                      15 # number of processing clusters
-gpgpu_n_cores_per_cluster                    1 # number of simd cores per cluster
-gpgpu_n_cluster_ejection_buffer_size                   32 # number of packets in ejection buffer
-gpgpu_n_ldst_response_buffer_size                    2 # number of response packets in ld/st unit ejection buffer
-gpgpu_shmem_per_block                49152 # Size of shared memory per thread block or CTA (default 48kB)
-gpgpu_shmem_size                  102400 # Size of shared memory per shader core (default 16kB)
-gpgpu_shmem_option                     0 # Option list of shared memory sizes
-gpgpu_unified_l1d_size                    0 # Size of unified data cache(L1D + shared memory) in KB
-gpgpu_adaptive_cache_config                    0 # adaptive_cache_config
-gpgpu_shmem_sizeDefault               102400 # Size of shared memory per shader core (default 16kB)
-gpgpu_shmem_size_PrefL1                16384 # Size of shared memory per shader core (default 16kB)
-gpgpu_shmem_size_PrefShared                16384 # Size of shared memory per shader core (default 16kB)
-gpgpu_shmem_num_banks                   32 # Number of banks in the shared memory in each shader core (default 16)
-gpgpu_shmem_limited_broadcast                    0 # Limit shared memory to do one broadcast per cycle (default on)
-gpgpu_shmem_warp_parts                    1 # Number of portions a warp is divided into for shared memory bank conflict check 
-gpgpu_mem_unit_ports                    1 # The number of memory transactions allowed per core cycle
-gpgpu_shmem_warp_parts                    1 # Number of portions a warp is divided into for shared memory bank conflict check 
-gpgpu_warpdistro_shader                   -1 # Specify which shader core to collect the warp size distribution from
-gpgpu_warp_issue_shader                    0 # Specify which shader core to collect the warp issue distribution from
-gpgpu_local_mem_map                    1 # Mapping from local memory space address to simulated GPU physical address space (default = enabled)
-gpgpu_num_reg_banks                    8 # Number of register banks (default = 8)
-gpgpu_reg_bank_use_warp_id                    0 # Use warp ID in mapping registers to banks (default = off)
-gpgpu_sub_core_model                    1 # Sub Core Volta/Pascal model (default = off)
-gpgpu_enable_specialized_operand_collector                    0 # enable_specialized_operand_collector
-gpgpu_operand_collector_num_units_sp                    4 # number of collector units (default = 4)
-gpgpu_operand_collector_num_units_dp                    0 # number of collector units (default = 0)
-gpgpu_operand_collector_num_units_sfu                    4 # number of collector units (default = 4)
-gpgpu_operand_collector_num_units_int                    0 # number of collector units (default = 0)
-gpgpu_operand_collector_num_units_tensor_core                    4 # number of collector units (default = 4)
-gpgpu_operand_collector_num_units_mem                    2 # number of collector units (default = 2)
-gpgpu_operand_collector_num_units_gen                    8 # number of collector units (default = 0)
-gpgpu_operand_collector_num_in_ports_sp                    1 # number of collector unit in ports (default = 1)
-gpgpu_operand_collector_num_in_ports_dp                    0 # number of collector unit in ports (default = 0)
-gpgpu_operand_collector_num_in_ports_sfu                    1 # number of collector unit in ports (default = 1)
-gpgpu_operand_collector_num_in_ports_int                    0 # number of collector unit in ports (default = 0)
-gpgpu_operand_collector_num_in_ports_tensor_core                    1 # number of collector unit in ports (default = 1)
-gpgpu_operand_collector_num_in_ports_mem                    1 # number of collector unit in ports (default = 1)
-gpgpu_operand_collector_num_in_ports_gen                    8 # number of collector unit in ports (default = 0)
-gpgpu_operand_collector_num_out_ports_sp                    1 # number of collector unit in ports (default = 1)
-gpgpu_operand_collector_num_out_ports_dp                    0 # number of collector unit in ports (default = 0)
-gpgpu_operand_collector_num_out_ports_sfu                    1 # number of collector unit in ports (default = 1)
-gpgpu_operand_collector_num_out_ports_int                    0 # number of collector unit in ports (default = 0)
-gpgpu_operand_collector_num_out_ports_tensor_core                    1 # number of collector unit in ports (default = 1)
-gpgpu_operand_collector_num_out_ports_mem                    1 # number of collector unit in ports (default = 1)
-gpgpu_operand_collector_num_out_ports_gen                    8 # number of collector unit in ports (default = 0)
-gpgpu_coalesce_arch                   86 # Coalescing arch (GT200 = 13, Fermi = 20)
-gpgpu_num_sched_per_core                    4 # Number of warp schedulers per core
-gpgpu_max_insn_issue_per_warp                    1 # Max number of instructions that can be issued per warp in one cycle by scheduler (either 1 or 2)
-gpgpu_dual_issue_diff_exec_units                    1 # should dual issue use two different execution unit resources (Default = 1)
-gpgpu_simt_core_sim_order                    1 # Select the simulation order of cores in a cluster (0=Fix, 1=Round-Robin)
-gpgpu_pipeline_widths 4,4,4,4,4,4,4,4,4,4,8,4,4 # Pipeline widths ID_OC_SP,ID_OC_DP,ID_OC_INT,ID_OC_SFU,ID_OC_MEM,OC_EX_SP,OC_EX_DP,OC_EX_INT,OC_EX_SFU,OC_EX_MEM,EX_WB,ID_OC_TENSOR_CORE,OC_EX_TENSOR_CORE
-gpgpu_tensor_core_avail                    1 # Tensor Core Available (default=0)
-gpgpu_num_sp_units                     4 # Number of SP units (default=1)
-gpgpu_num_dp_units                     4 # Number of DP units (default=0)
-gpgpu_num_int_units                    4 # Number of INT units (default=0)
-gpgpu_num_sfu_units                    4 # Number of SF units (default=1)
-gpgpu_num_tensor_core_units                    4 # Number of tensor_core units (default=1)
-gpgpu_num_mem_units                    1 # Number if ldst units (default=1) WARNING: not hooked up to anything
-gpgpu_scheduler                      lrr # Scheduler configuration: < lrr | gto | two_level_active > If two_level_active:<num_active_warps>:<inner_prioritization>:<outer_prioritization>For complete list of prioritization values see shader.h enum scheduler_prioritization_typeDefault: gto
-gpgpu_concurrent_kernel_sm                    0 # Support concurrent kernels on a SM (default = disabled)
-gpgpu_perfect_inst_const_cache                    1 # perfect inst and const cache mode, so all inst and const hits in the cache(default = disabled)
-gpgpu_inst_fetch_throughput                    4 # the number of fetched intruction per warp each cycle
-gpgpu_reg_file_port_throughput                    2 # the number ports of the register file
-specialized_unit_1         1,4,4,4,4,BRA # specialized unit config {<enabled>,<num_units>:<latency>:<initiation>,<ID_OC_SPEC>:<OC_EX_SPEC>,<NAME>}
-specialized_unit_2       1,4,200,4,4,TEX # specialized unit config {<enabled>,<num_units>:<latency>:<initiation>,<ID_OC_SPEC>:<OC_EX_SPEC>,<NAME>}
-specialized_unit_3     1,4,32,4,4,TENSOR # specialized unit config {<enabled>,<num_units>:<latency>:<initiation>,<ID_OC_SPEC>:<OC_EX_SPEC>,<NAME>}
-specialized_unit_4         1,4,4,4,4,UDP # specialized unit config {<enabled>,<num_units>:<latency>:<initiation>,<ID_OC_SPEC>:<OC_EX_SPEC>,<NAME>}
-specialized_unit_5         0,4,4,4,4,BRA # specialized unit config {<enabled>,<num_units>:<latency>:<initiation>,<ID_OC_SPEC>:<OC_EX_SPEC>,<NAME>}
-specialized_unit_6         0,4,4,4,4,BRA # specialized unit config {<enabled>,<num_units>:<latency>:<initiation>,<ID_OC_SPEC>:<OC_EX_SPEC>,<NAME>}
-specialized_unit_7         0,4,4,4,4,BRA # specialized unit config {<enabled>,<num_units>:<latency>:<initiation>,<ID_OC_SPEC>:<OC_EX_SPEC>,<NAME>}
-specialized_unit_8         0,4,4,4,4,BRA # specialized unit config {<enabled>,<num_units>:<latency>:<initiation>,<ID_OC_SPEC>:<OC_EX_SPEC>,<NAME>}
-gpgpu_perf_sim_memcpy                    1 # Fill the L2 cache on memcpy
-gpgpu_simple_dram_model                    0 # simple_dram_model with fixed latency and BW
-gpgpu_dram_scheduler                    1 # 0 = fifo, 1 = FR-FCFS (defaul)
-gpgpu_dram_partition_queues          64:64:64:64 # i2$:$2d:d2$:$2i
-l2_ideal                               0 # Use a ideal L2 cache that always hit
-gpgpu_cache:dl2     S:64:128:16,L:B:m:L:P,A:192:4,32:0,32 # unified banked L2 data cache config  {<sector?>:<nsets>:<bsize>:<assoc>,<rep>:<wr>:<alloc>:<wr_alloc>:<set_index_fn>,<mshr>:<N>:<merge>,<mq>:<fifo_entry>,<data_port_width>
-gpgpu_cache:dl2_texture_only                    0 # L2 cache used for texture only
-gpgpu_n_mem                            6 # number of memory modules (e.g. memory controllers) in gpu
-gpgpu_n_sub_partition_per_mchannel                    2 # number of memory subpartition in each memory module
-gpgpu_n_mem_per_ctrlr                    2 # number of memory chips per memory controller
-gpgpu_memlatency_stat                   14 # track and display latency statistics 0x2 enables MC, 0x4 enables queue logs
-gpgpu_frfcfs_dram_sched_queue_size                   64 # 0 = unlimited (default); # entries per chip
-gpgpu_dram_return_queue_size                  116 # 0 = unlimited (default); # entries per chip
-gpgpu_dram_buswidth                    4 # default = 4 bytes (8 bytes per cycle at DDR)
-gpgpu_dram_burst_length                    8 # Burst length of each DRAM request (default = 4 data bus cycle)
-dram_data_command_freq_ratio                    4 # Frequency ratio between DRAM data bus and command bus (default = 2 times, i.e. DDR)
-gpgpu_dram_timing_opt nbk=16:CCD=2:RRD=6:RCD=12:RAS=28:RP=12:RC=40: CL=12:WL=4:CDLR=5:WR=12:nbkgrp=4:CCDL=3:RTPL=2 # DRAM timing parameters = {nbk:tCCD:tRRD:tRCD:tRAS:tRP:tRC:CL:WL:tCDLR:tWR:nbkgrp:tCCDL:tRTPL}
-gpgpu_l2_rop_latency                  120 # ROP queue latency (default 85)
-dram_latency                         100 # DRAM latency (default 30)
-dram_dual_bus_interface                    0 # dual_bus_interface (default = 0) 
-dram_bnk_indexing_policy                    0 # dram_bnk_indexing_policy (0 = normal indexing, 1 = Xoring with the higher bits) (Default = 0)
-dram_bnkgrp_indexing_policy                    1 # dram_bnkgrp_indexing_policy (0 = take higher bits, 1 = take lower bits) (Default = 0)
-dram_seperate_write_queue_enable                    0 # Seperate_Write_Queue_Enable
-dram_write_queue_size             32:28:16 # Write_Queue_Size
-dram_elimnate_rw_turnaround                    0 # elimnate_rw_turnaround i.e set tWTR and tRTW = 0
-icnt_flit_size                        40 # icnt_flit_size
-SST_mode                               0 # SST mode
-gpgpu_mem_addr_mapping dramid@8;00000000.00000000.00000000.00000000.0000RRRR.RRRRRRRR.BBBCCCCB.CCSSSSSS # mapping memory address to dram model {dramid@<start bit>;<memory address map>}
-gpgpu_mem_addr_test                    0 # run sweep test to check address mapping for aliased address
-gpgpu_mem_address_mask                    1 # 0 = old addressing mask, 1 = new addressing mask, 2 = new add. mask + flipped bank sel and chip sel bits
-gpgpu_memory_partition_indexing                    2 # 0 = no indexing, 1 = bitwise xoring, 2 = IPoly, 3 = custom indexing
-accelwattch_xml_file accelwattch_sass_sim.xml # AccelWattch XML file
-power_simulation_enabled                    0 # Turn on power simulator (1=On, 0=Off)
-power_per_cycle_dump                    0 # Dump detailed power output each cycle
-hw_perf_file_name            hw_perf.csv # Hardware Performance Statistics file
-hw_perf_bench_name                       # Kernel Name in Hardware Performance Statistics file
-power_simulation_mode                    0 # Switch performance counter input for power simulation (0=Sim, 1=HW, 2=HW-Sim Hybrid)
-dvfs_enabled                           0 # Turn on DVFS for power model
-aggregate_power_stats                    0 # Accumulate power across all kernels
-accelwattch_hybrid_perfsim_L1_RH                    0 # Get L1 Read Hits for Accelwattch-Hybrid from Accel-Sim
-accelwattch_hybrid_perfsim_L1_RM                    0 # Get L1 Read Misses for Accelwattch-Hybrid from Accel-Sim
-accelwattch_hybrid_perfsim_L1_WH                    0 # Get L1 Write Hits for Accelwattch-Hybrid from Accel-Sim
-accelwattch_hybrid_perfsim_L1_WM                    0 # Get L1 Write Misses for Accelwattch-Hybrid from Accel-Sim
-accelwattch_hybrid_perfsim_L2_RH                    0 # Get L2 Read Hits for Accelwattch-Hybrid from Accel-Sim
-accelwattch_hybrid_perfsim_L2_RM                    0 # Get L2 Read Misses for Accelwattch-Hybrid from Accel-Sim
-accelwattch_hybrid_perfsim_L2_WH                    0 # Get L2 Write Hits for Accelwattch-Hybrid from Accel-Sim
-accelwattch_hybrid_perfsim_L2_WM                    0 # Get L2 Write Misses for Accelwattch-Hybrid from Accel-Sim
-accelwattch_hybrid_perfsim_CC_ACC                    0 # Get Constant Cache Acesses for Accelwattch-Hybrid from Accel-Sim
-accelwattch_hybrid_perfsim_SHARED_ACC                    0 # Get Shared Memory Acesses for Accelwattch-Hybrid from Accel-Sim
-accelwattch_hybrid_perfsim_DRAM_RD                    0 # Get DRAM Reads for Accelwattch-Hybrid from Accel-Sim
-accelwattch_hybrid_perfsim_DRAM_WR                    0 # Get DRAM Writes for Accelwattch-Hybrid from Accel-Sim
-accelwattch_hybrid_perfsim_NOC                    0 # Get Interconnect Acesses for Accelwattch-Hybrid from Accel-Sim
-accelwattch_hybrid_perfsim_PIPE_DUTY                    0 # Get Pipeline Duty Cycle Acesses for Accelwattch-Hybrid from Accel-Sim
-accelwattch_hybrid_perfsim_NUM_SM_IDLE                    0 # Get Number of Idle SMs for Accelwattch-Hybrid from Accel-Sim
-accelwattch_hybrid_perfsim_CYCLES                    0 # Get Executed Cycles for Accelwattch-Hybrid from Accel-Sim
-accelwattch_hybrid_perfsim_VOLTAGE                    0 # Get Chip Voltage for Accelwattch-Hybrid from Accel-Sim
-power_trace_enabled                    0 # produce a file for the power trace (1=On, 0=Off)
-power_trace_zlevel                     6 # Compression level of the power trace output log (0=no comp, 9=highest)
-steady_power_levels_enabled                    0 # produce a file for the steady power levels (1=On, 0=Off)
-steady_state_definition                  8:4 # allowed deviation:number of samples
-gpgpu_max_cycle                        0 # terminates gpu simulation early (0 = no limit)
-gpgpu_max_insn                 100000000 # terminates gpu simulation early (0 = no limit)
-gpgpu_max_cta                          0 # terminates gpu simulation early (0 = no limit)
-gpgpu_max_completed_cta                    0 # terminates gpu simulation early (0 = no limit)
-gpgpu_runtime_stat                   500 # display runtime statistics such as dram utilization {<freq>:<flag>}
-liveness_message_freq                    1 # Minimum number of seconds between simulation liveness messages (0 = always print)
-gpgpu_compute_capability_major                    8 # Major compute capability version number
-gpgpu_compute_capability_minor                    6 # Minor compute capability version number
-gpgpu_flush_l1_cache                    1 # Flush L1 cache at the end of each kernel call
-gpgpu_flush_l2_cache                    0 # Flush L2 cache at the end of each kernel call
-gpgpu_deadlock_detect                    1 # Stop the simulation at deadlock (1=on (default), 0=off)
-gpgpu_ptx_instruction_classification                    0 # if enabled will classify ptx instruction types per kernel (Max 255 kernels now)
-gpgpu_ptx_sim_mode                     0 # Select between Performance (default) or Functional simulation (1)
-gpgpu_clock_domains 1132:1132:1132:3500.5 # Clock Domain Frequencies in MhZ {<Core Clock>:<ICNT Clock>:<L2 Clock>:<DRAM Clock>}
-gpgpu_max_concurrent_kernel                  128 # maximum kernels that can run concurrently on GPU, set this value according to max resident grids for your compute capability
-gpgpu_cflog_interval                    0 # Interval between each snapshot in control flow logger
-visualizer_enabled                     0 # Turn on visualizer output (1=On, 0=Off)
-visualizer_outputfile                 NULL # Specifies the output log file for visualizer
-visualizer_zlevel                      6 # Compression level of the visualizer output log (0=no comp, 9=highest)
-gpgpu_stack_size_limit                 1024 # GPU thread stack size
-gpgpu_heap_size_limit              8388608 # GPU malloc heap size 
-gpgpu_runtime_sync_depth_limit                    2 # GPU device runtime synchronize depth
-gpgpu_runtime_pending_launch_count_limit                 2048 # GPU device runtime pending launch count
-trace_enabled                          0 # Turn on traces
-trace_components                    none # comma seperated list of traces to enable. Complete list found in trace_streams.tup. Default none
-trace_sampling_core                    0 # The core which is printed using CORE_DPRINTF. Default 0
-trace_sampling_memory_partition                   -1 # The memory partition which is printed using MEMPART_DPRINTF. Default -1 (i.e. all)
-enable_ptx_file_line_stats                    1 # Turn on PTX source line statistic profiling. (1 = On)
-ptx_line_stats_filename gpgpu_inst_stats.txt # Output file for PTX source line statistics.
-gpgpu_kernel_launch_latency                 5000 # Kernel launch latency in cycles. Default: 0
-gpgpu_cdp_enabled                      0 # Turn on CDP
-gpgpu_TB_launch_latency                    0 # thread block launch latency in cycles. Default: 0
-trace               ./util/tracer_nvbit/LPS_traces/kernelslist.g # traces kernel filetraces kernel file directory
-trace_opcode_latency_initiation_int                  2,2 # Opcode latencies and initiation for integers in trace driven mode <latency,initiation>
-trace_opcode_latency_initiation_sp                  2,1 # Opcode latencies and initiation for sp in trace driven mode <latency,initiation>
-trace_opcode_latency_initiation_dp                64,64 # Opcode latencies and initiation for dp in trace driven mode <latency,initiation>
-trace_opcode_latency_initiation_sfu                 21,8 # Opcode latencies and initiation for sfu in trace driven mode <latency,initiation>
-trace_opcode_latency_initiation_tensor                32,32 # Opcode latencies and initiation for tensor in trace driven mode <latency,initiation>
-trace_opcode_latency_initiation_spec_op_1                  4,4 # specialized unit config <latency,initiation>
-trace_opcode_latency_initiation_spec_op_2                200,4 # specialized unit config <latency,initiation>
-trace_opcode_latency_initiation_spec_op_3                32,32 # specialized unit config <latency,initiation>
-trace_opcode_latency_initiation_spec_op_4                  4,1 # specialized unit config <latency,initiation>
-trace_opcode_latency_initiation_spec_op_5                  4,4 # specialized unit config <latency,initiation>
-trace_opcode_latency_initiation_spec_op_6                  4,4 # specialized unit config <latency,initiation>
-trace_opcode_latency_initiation_spec_op_7                  4,4 # specialized unit config <latency,initiation>
-trace_opcode_latency_initiation_spec_op_8                  4,4 # specialized unit config <latency,initiation>
DRAM Timing Options:
nbk                                    16 # number of banks
CCD                                     2 # column to column delay
RRD                                     6 # minimal delay between activation of rows in different banks
RCD                                    12 # row to column delay
RAS                                    28 # time needed to activate row
RP                                     12 # time needed to precharge (deactivate) row
RC                                     40 # row cycle time
CDLR                                    5 # switching from write to read (changes tWTR)
WR                                     12 # last data-in to row precharge
CL                                     12 # CAS latency
WL                                      4 # Write latency
nbkgrp                                  4 # number of bank groups
CCDL                                    3 # column to column delay between accesses to different bank groups
RTPL                                    2 # read to precharge delay between accesses to different bank groups
Total number of memory sub partition = 12
addr_dec_mask[CHIP]  = 0000000000000000 	high:64 low:0
addr_dec_mask[BK]    = 000000000000e100 	high:16 low:8
addr_dec_mask[ROW]   = 000000000fff0000 	high:28 low:16
addr_dec_mask[COL]   = 0000000000001eff 	high:13 low:0
addr_dec_mask[BURST] = 000000000000003f 	high:6 low:0
sub_partition_id_mask = 0000000000000100
GPGPU-Sim uArch: clock freqs: 1132000000.000000:1132000000.000000:1132000000.000000:3500500000.000000
GPGPU-Sim uArch: clock periods: 0.00000000088339222615:0.00000000088339222615:0.00000000088339222615:0.00000000028567347522
*** Initializing Memory Statistics ***
GPGPU-Sim uArch: performance model initialization complete.
Processing kernel ./util/tracer_nvbit/LPS_traces/kernel-1-ctx_0xb0aa750.traceg.xz
-kernel name = _Z13GPU_laplace3diiiiPfS_
-kernel id = 1
-grid dim = (4,25,1)
-block dim = (32,4,1)
-shmem = 2448
-nregs = 23
-binary version = 86
-cuda stream id = 0
-shmem base_addr = 0x00007e0cf5000000
-local mem base_addr = 0x00007e0cf3000000
-nvbit version = 1.7.6
-accelsim tracer version = 5
-enable lineinfo = 0
Header info loaded for kernel command : ./util/tracer_nvbit/LPS_traces/kernel-1-ctx_0xb0aa750.traceg.xz
launching kernel name: _Z13GPU_laplace3diiiiPfS_ uid: 1 cuda_stream_id: 0
GPGPU-Sim uArch: Shader 0 bind to kernel 1 '_Z13GPU_laplace3diiiiPfS_'
GPGPU-Sim uArch: CTA/core = 8, limited by: cta_limit
thread block = 0,0,0
GPGPU-Sim uArch: Shader 1 bind to kernel 1 '_Z13GPU_laplace3diiiiPfS_'
thread block = 1,0,0
GPGPU-Sim uArch: Shader 2 bind to kernel 1 '_Z13GPU_laplace3diiiiPfS_'
thread block = 2,0,0
GPGPU-Sim uArch: Shader 3 bind to kernel 1 '_Z13GPU_laplace3diiiiPfS_'
thread block = 3,0,0
GPGPU-Sim uArch: Shader 4 bind to kernel 1 '_Z13GPU_laplace3diiiiPfS_'
thread block = 0,1,0
GPGPU-Sim uArch: Shader 5 bind to kernel 1 '_Z13GPU_laplace3diiiiPfS_'
thread block = 1,1,0
GPGPU-Sim uArch: Shader 6 bind to kernel 1 '_Z13GPU_laplace3diiiiPfS_'
thread block = 2,1,0
GPGPU-Sim uArch: Shader 7 bind to kernel 1 '_Z13GPU_laplace3diiiiPfS_'
thread block = 3,1,0
GPGPU-Sim uArch: Shader 8 bind to kernel 1 '_Z13GPU_laplace3diiiiPfS_'
thread block = 0,2,0
GPGPU-Sim uArch: Shader 9 bind to kernel 1 '_Z13GPU_laplace3diiiiPfS_'
thread block = 1,2,0
GPGPU-Sim uArch: Shader 10 bind to kernel 1 '_Z13GPU_laplace3diiiiPfS_'
thread block = 2,2,0
GPGPU-Sim uArch: Shader 11 bind to kernel 1 '_Z13GPU_laplace3diiiiPfS_'
thread block = 3,2,0
GPGPU-Sim uArch: Shader 12 bind to kernel 1 '_Z13GPU_laplace3diiiiPfS_'
thread block = 0,3,0
GPGPU-Sim uArch: Shader 13 bind to kernel 1 '_Z13GPU_laplace3diiiiPfS_'
thread block = 1,3,0
GPGPU-Sim uArch: Shader 14 bind to kernel 1 '_Z13GPU_laplace3diiiiPfS_'
thread block = 2,3,0
thread block = 3,3,0
thread block = 0,4,0
thread block = 1,4,0
thread block = 2,4,0
thread block = 3,4,0
thread block = 0,5,0
thread block = 1,5,0
thread block = 2,5,0
thread block = 3,5,0
thread block = 0,6,0
thread block = 1,6,0
thread block = 2,6,0
thread block = 3,6,0
thread block = 0,7,0
thread block = 1,7,0
thread block = 2,7,0
thread block = 3,7,0
thread block = 0,8,0
thread block = 1,8,0
thread block = 2,8,0
thread block = 3,8,0
thread block = 0,9,0
thread block = 1,9,0
thread block = 2,9,0
thread block = 3,9,0
thread block = 0,10,0
thread block = 1,10,0
thread block = 2,10,0
thread block = 3,10,0
thread block = 0,11,0
thread block = 1,11,0
thread block = 2,11,0
thread block = 3,11,0
thread block = 0,12,0
thread block = 1,12,0
thread block = 2,12,0
thread block = 3,12,0
thread block = 0,13,0
thread block = 1,13,0
thread block = 2,13,0
thread block = 3,13,0
thread block = 0,14,0
thread block = 1,14,0
thread block = 2,14,0
thread block = 3,14,0
thread block = 0,15,0
thread block = 1,15,0
thread block = 2,15,0
thread block = 3,15,0
thread block = 0,16,0
thread block = 1,16,0
thread block = 2,16,0
thread block = 3,16,0
thread block = 0,17,0
thread block = 1,17,0
thread block = 2,17,0
thread block = 3,17,0
thread block = 0,18,0
thread block = 1,18,0
thread block = 2,18,0
thread block = 3,18,0
thread block = 0,19,0
thread block = 1,19,0
thread block = 2,19,0
thread block = 3,19,0
thread block = 0,20,0
thread block = 1,20,0
thread block = 2,20,0
thread block = 3,20,0
thread block = 0,21,0
thread block = 1,21,0
thread block = 2,21,0
thread block = 3,21,0
thread block = 0,22,0
thread block = 1,22,0
thread block = 2,22,0
thread block = 3,22,0
thread block = 0,23,0
thread block = 1,23,0
thread block = 2,23,0
thread block = 3,23,0
thread block = 0,24,0
thread block = 1,24,0
thread block = 2,24,0
thread block = 3,24,0
Destroy streams for kernel 1: size 0
kernel_name = _Z13GPU_laplace3diiiiPfS_ 
kernel_launch_uid = 1 
kernel_stream_id = 0
gpu_sim_cycle = 96502
gpu_sim_insn = 52655600
gpu_ipc =     545.6426
gpu_tot_sim_cycle = 96502
gpu_tot_sim_insn = 52655600
gpu_tot_ipc =     545.6426
gpu_tot_issued_cta = 100
gpu_occupancy = 55.2157% 
gpu_tot_occupancy = 55.2157% 
max_total_param_size = 0
gpu_stall_dramfull = 0
gpu_stall_icnt2sh    = 0
partiton_level_parallism =       4.2611
partiton_level_parallism_total  =       4.2611
partiton_level_parallism_util =       4.5474
partiton_level_parallism_util_total  =       4.5474
L2_BW  =     154.3523 GB/Sec
L2_BW_total  =     154.3523 GB/Sec
gpu_total_sim_rate=4050430

========= Core cache stats =========
L1I_cache:
	L1I_total_cache_accesses = 0
	L1I_total_cache_misses = 0
	L1I_total_cache_pending_hits = 0
	L1I_total_cache_reservation_fails = 0
L1D_cache:
	L1D_cache_core[0]: Access = 0, Miss = 0, Miss_rate = -nan, Pending_hits = 0, Reservation_fails = 0
	L1D_cache_core[1]: Access = 0, Miss = 0, Miss_rate = -nan, Pending_hits = 0, Reservation_fails = 0
	L1D_cache_core[2]: Access = 0, Miss = 0, Miss_rate = -nan, Pending_hits = 0, Reservation_fails = 0
	L1D_cache_core[3]: Access = 0, Miss = 0, Miss_rate = -nan, Pending_hits = 0, Reservation_fails = 0
	L1D_cache_core[4]: Access = 0, Miss = 0, Miss_rate = -nan, Pending_hits = 0, Reservation_fails = 0
	L1D_cache_core[5]: Access = 0, Miss = 0, Miss_rate = -nan, Pending_hits = 0, Reservation_fails = 0
	L1D_cache_core[6]: Access = 0, Miss = 0, Miss_rate = -nan, Pending_hits = 0, Reservation_fails = 0
	L1D_cache_core[7]: Access = 0, Miss = 0, Miss_rate = -nan, Pending_hits = 0, Reservation_fails = 0
	L1D_cache_core[8]: Access = 0, Miss = 0, Miss_rate = -nan, Pending_hits = 0, Reservation_fails = 0
	L1D_cache_core[9]: Access = 0, Miss = 0, Miss_rate = -nan, Pending_hits = 0, Reservation_fails = 0
	L1D_cache_core[10]: Access = 0, Miss = 0, Miss_rate = -nan, Pending_hits = 0, Reservation_fails = 0
	L1D_cache_core[11]: Access = 0, Miss = 0, Miss_rate = -nan, Pending_hits = 0, Reservation_fails = 0
	L1D_cache_core[12]: Access = 0, Miss = 0, Miss_rate = -nan, Pending_hits = 0, Reservation_fails = 0
	L1D_cache_core[13]: Access = 0, Miss = 0, Miss_rate = -nan, Pending_hits = 0, Reservation_fails = 0
	L1D_cache_core[14]: Access = 0, Miss = 0, Miss_rate = -nan, Pending_hits = 0, Reservation_fails = 0
	L1D_total_cache_accesses = 0
	L1D_total_cache_misses = 0
	L1D_total_cache_pending_hits = 0
	L1D_total_cache_reservation_fails = 0
	L1D_cache_data_port_util = 0.000
	L1D_cache_fill_port_util = 0.000
L1C_cache:
	L1C_total_cache_accesses = 0
	L1C_total_cache_misses = 0
	L1C_total_cache_pending_hits = 0
	L1C_total_cache_reservation_fails = 0
L1T_cache:
	L1T_total_cache_accesses = 0
	L1T_total_cache_misses = 0
	L1T_total_cache_pending_hits = 0
	L1T_total_cache_reservation_fails = 0

Total_core_cache_stats:

Total_core_cache_fail_stats:
ctas_completed 100, Shader 0 warp_id issue ditsribution:
warp_id:
0, 1, 2, 3, 4, 5, 6, 7, 8, 9, 10, 11, 12, 13, 14, 15, 16, 17, 18, 19, 20, 21, 22, 23, 24, 25, 26, 27, 
distro:
3657, 6125, 6226, 5001, 6425, 6425, 6426, 5201, 5929, 5929, 6030, 4805, 5929, 5929, 6030, 4805, 6125, 6125, 6226, 5001, 6425, 6425, 6426, 5201, 5929, 5929, 6030, 4805, 
gpgpu_n_tot_thrd_icount = 74058880
gpgpu_n_tot_w_icount = 2314340
gpgpu_n_stall_shd_mem = 302000
gpgpu_n_mem_read_local = 0
gpgpu_n_mem_write_local = 0
gpgpu_n_mem_read_global = 281200
gpgpu_n_mem_write_global = 130000
gpgpu_n_mem_texture = 0
gpgpu_n_mem_const = 0
gpgpu_n_load_insn  = 1568800
gpgpu_n_store_insn = 1000000
gpgpu_n_shmem_insn = 13549960
gpgpu_n_sstarr_insn = 0
gpgpu_n_tex_insn = 0
gpgpu_n_const_mem_insn = 0
gpgpu_n_param_mem_insn = 0
gpgpu_n_shmem_bkconflict = 0
gpgpu_n_l1cache_bkconflict = 0
gpgpu_n_intrawarp_mshr_merge = 0
gpgpu_n_cmem_portconflict = 0
gpgpu_stall_shd_mem[c_mem][resource_stall] = 0
gpgpu_stall_shd_mem[s_mem][bk_conf] = 0
gpgpu_stall_shd_mem[gl_mem][resource_stall] = 0
gpgpu_stall_shd_mem[gl_mem][coal_stall] = 302000
gpgpu_stall_shd_mem[gl_mem][data_port_stall] = 0
gpu_reg_bank_conflict_stalls = 0
Warp Occupancy Distribution:
Stall:1225862	W0_Idle:27454	W0_Scoreboard:2039988	W1:57624	W2:0	W3:134456	W4:261636	W5:4404	W6:50646	W7:0	W8:0	W9:0	W10:4404	W11:0	W12:53246	W13:0	W14:0	W15:0	W16:0	W17:0	W18:0	W19:0	W20:9400	W21:0	W22:800	W23:0	W24:0	W25:0	W26:9200	W27:800	W28:49600	W29:0	W30:0	W31:134456	W32:1378620
single_issue_nums: WS0:600620	WS1:605716	WS2:617800	WS3:490204	
dual_issue_nums: WS0:0	WS1:0	WS2:0	WS3:0	
traffic_breakdown_coretomem[GLOBAL_ACC_R] = 2249600 {8:281200,}
traffic_breakdown_coretomem[GLOBAL_ACC_W] = 5200000 {40:130000,}
traffic_breakdown_memtocore[GLOBAL_ACC_R] = 11248000 {40:281200,}
traffic_breakdown_memtocore[GLOBAL_ACC_W] = 1040000 {8:130000,}
maxmflatency = 499 
max_icnt2mem_latency = 238 
maxmrqlatency = 114 
max_icnt2sh_latency = 116 
averagemflatency = 177 
avg_icnt2mem_latency = 9 
avg_mrq_latency = 1 
avg_icnt2sh_latency = 6 
mrq_lat_table:131453 	5947 	13398 	8170 	4052 	542 	33 	0 	0 	0 	0 	0 	0 	0 	0 	0 	0 	0 	0 	0 	0 	0 	0 	0 	0 	0 	0 	0 	0 	0 	0 	0 	
dq_lat_table:0 	0 	0 	0 	0 	0 	0 	0 	0 	0 	0 	0 	0 	0 	0 	0 	0 	0 	0 	0 	0 	0 	0 	0 	0 	0 	0 	0 	0 	0 	0 	0 	
mf_lat_table:0 	0 	0 	0 	0 	0 	48229 	322613 	40358 	0 	0 	0 	0 	0 	0 	0 	0 	0 	0 	0 	0 	0 	0 	0 	0 	0 	0 	0 	0 	0 	0 	0 	
icnt2mem_lat_table:0 	162655 	98787 	80479 	48307 	16661 	3783 	528 	0 	0 	0 	0 	0 	0 	0 	0 	0 	0 	0 	0 	0 	0 	0 	0 	
icnt2sh_lat_table:0 	213846 	95794 	61041 	30680 	9218 	621 	0 	0 	0 	0 	0 	0 	0 	0 	0 	0 	0 	0 	0 	0 	0 	0 	0 	
mf_lat_pw_table:0 	0 	0 	0 	0 	0 	1 	182 	0 	0 	0 	0 	0 	0 	0 	0 	0 	0 	0 	0 	0 	0 	0 	0 	0 	0 	0 	0 	0 	0 	0 	0 	
maximum concurrent accesses to same row:
dram[0]:       156       156       156       156       156       156       156       156       156       156       156       156       156       156       156       156 
dram[1]:       156       156       156       156       156       156       156       156       156       156       156       156       156       156       156       156 
dram[2]:        78        78        78        78        78        78        78        78        78        78        78        78        78        78        78        78 
dram[3]:        78        78        78        78        78        78        78        78        78        78        78        78        78        78        78        78 
dram[4]:        78        78        78        78        78        78        78        78        78        78        78        78        78        78        78        78 
dram[5]:        78        78        78        78        78        78        78        78        78        78        78        78        78        78        78        78 
maximum service time to same row:
dram[0]:      9402      9598     10230     10214      5714      5841      6500      6443      6673      7013      6811      6915      7657      7706      8674      8562 
dram[1]:      9483      9551     10211     10461      5826      5682      6411      6639      6828      6946      6823      6959      7644      7797      8648      8640 
dram[2]:      9539      9510     10239     10236      6548      6643      6430      6604      7021      7148      7145      6975      7926      7647      8688      8537 
dram[3]:      9502      9529     10216     10321      6439      6642      6567      6651      6825      6932      7149      7085      7723      7652      8660      8621 
dram[4]:      9434      9581     10455     10238      6199      6645      6625      6596      7075      7071      7016      6967      7667      7677      8636      8536 
dram[5]:      9535      9431     10213     10313      6345      6774      6667      6607      7107      6855      6953      6899      7681      7634      8561      8641 
average row accesses per activate:
dram[0]: 20.220472 17.000000 23.666666 17.874126 24.383177 24.551401 23.185841 25.676470 10.691358 11.431718 13.848649 13.837838 23.889908 24.336449 22.067797 22.067797 
dram[1]: 15.754601 16.356688 20.780487 19.968750 19.961832 26.444445 23.818182 30.823530 11.967742 11.362446 12.610837 13.627660 28.000000 23.889908 19.727272 23.889908 
dram[2]:  7.776398  7.160000  6.631016  6.666667 10.540983  9.613636 11.017241 10.650000  6.500000  5.833333  6.207921  7.333333  9.211679 10.193548 10.786325 10.786325 
dram[3]:  6.736559  7.502994  7.091429  6.200000  8.992958  9.085107 11.113044  9.466666  5.869768  6.156097  7.044944  7.290698  8.717241  9.348148  9.417911 10.525000 
dram[4]:  7.376471  7.000000  7.369048  6.502618 10.184000 10.276423 11.410714  9.128572  5.892523  5.943396  6.207921  7.646341  8.901408  8.731034 10.177420 10.344262 
dram[5]:  7.587879  7.508982  6.424870  7.132184  9.875000 10.880342  9.755725 10.561983  5.701357  6.737968  7.248555  6.147059  8.214286  9.355556 11.685185  9.575758 
average row locality = 163595/14611 = 11.196701
number of total memory accesses made:
dram[0]:         0         0         0         0         0         0         0         0         0         0         0         0         0         0         0         0 
dram[1]:         0         0         0         0         0         0         0         0         0         0         0         0         0         0         0         0 
dram[2]:         0         0         0         0         0         0         0         0         0         0         0         0         0         0         0         0 
dram[3]:         0         0         0         0         0         0         0         0         0         0         0         0         0         0         0         0 
dram[4]:         0         0         0         0         0         0         0         0         0         0         0         0         0         0         0         0 
dram[5]:         0         0         0         0         0         0         0         0         0         0         0         0         0         0         0         0 
total accesses: 0
min_bank_accesses = 0!
min_chip_accesses = 0!
number of total read accesses:
dram[0]:         0         0         0         0         0         0         0         0         0         0         0         0         0         0         0         0 
dram[1]:         0         0         0         0         0         0         0         0         0         0         0         0         0         0         0         0 
dram[2]:         0         0         0         0         0         0         0         0         0         0         0         0         0         0         0         0 
dram[3]:         0         0         0         0         0         0         0         0         0         0         0         0         0         0         0         0 
dram[4]:         0         0         0         0         0         0         0         0         0         0         0         0         0         0         0         0 
dram[5]:         0         0         0         0         0         0         0         0         0         0         0         0         0         0         0         0 
total dram reads = 0
min_bank_accesses = 0!
min_chip_accesses = 0!
number of total write accesses:
dram[0]:       808       810       792       792       838       840       888       886       858       848       796       796       864       864       864       864 
dram[1]:       812       808       792       792       836       846       888       888       850       862       796       800       864       864       864       864 
dram[2]:       356       360       338       338       370       374       396       396       370       370       360       360       372       374       372       372 
dram[3]:       360       358       342       340       374       370       396       396       372       370       360       360       374       372       372       374 
dram[4]:       360       358       336       342       370       374       396       396       370       370       360       360       376       376       372       372 
dram[5]:       356       360       340       340       374       370       396       396       370       368       360       360       376       374       372       374 
total dram writes = 50376
bank skew: 888/336 = 2.64
chip skew: 13426/5878 = 2.28
average mf latency per bank:
dram[0]:       1429      1428      1449      1461      1406      1402      1342      1337      1365      1374      1462      1454      1342      1344      1336      1331
dram[1]:       1440      1441      1469      1468      1415      1392      1350      1341      1386      1356      1484      1464      1346      1346      1354      1353
dram[2]:       1555      1516      1639      1631      1528      1503      1429      1415      1485      1499      1538      1549      1486      1479      1490      1479
dram[3]:       1536      1543      1607      1616      1506      1525      1434      1428      1484      1498      1551      1545      1473      1481      1484      1476
dram[4]:       1534      1542      1647      1611      1512      1488      1427      1428      1489      1512      1540      1525      1464      1470      1483      1484
dram[5]:       1548      1537      1637      1619      1487      1514      1424      1429      1491      1504      1545      1532      1464      1485      1477      1472
maximum mf latency per bank:
dram[0]:        323       356       344       353       388       405       453       460       397       439       458       382       374       369       378       365
dram[1]:        348       341       347       363       361       358       432       459       440       396       453       499       369       354       343       367
dram[2]:        300       296       296       299       370       360       416       397       458       406       367       373       305       331       335       324
dram[3]:        328       344       290       312       322       326       393       469       367       401       362       371       349       343       316       333
dram[4]:        296       299       322       308       334       369       400       469       406       465       342       353       326       335       359       373
dram[5]:        319       339       308       295       318       337       389       414       369       395       368       363       327       324       339       342
Memory Partition 0: 
Cache L2_bank_000:
MSHR contents

Cache L2_bank_001:
MSHR contents

In Dram Latency Queue (total = 4): 
Ready @ 96571 -   mf: uid=1636031, sid4294967295:w4294967295, part=0, addr=0x7e0cdfe31880, store, size=128, L2_WRBK  status = IN_PARTITION_DRAM_LATENCY_QUEUE (96471), 
Ready @ 96578 -   mf: uid=1636088, sid4294967295:w4294967295, part=0, addr=0x7e0cdfe31f80, store, size=32, L2_WRBK  status = IN_PARTITION_DRAM_LATENCY_QUEUE (96478), 
Ready @ 96582 -   mf: uid=1636122, sid4294967295:w4294967295, part=0, addr=0x7e0cdfe68a80, store, size=128, L2_WRBK  status = IN_PARTITION_DRAM_LATENCY_QUEUE (96482), 
Ready @ 96589 -   mf: uid=1636179, sid4294967295:w4294967295, part=0, addr=0x7e0cdfe32e80, store, size=128, L2_WRBK  status = IN_PARTITION_DRAM_LATENCY_QUEUE (96489), 
DRAM[0]: 16 bks, busW=4 BL=8 CL=12, tRRD=6 tCCD=2, tRCD=12 tRAS=28 tRP=12 tRC=40
n_cmd=298412 n_nop=245866 n_act=2250 n_pre=2234 n_ref_event=0 n_req=41453 n_rd=32508 n_rd_L2_A=0 n_write=0 n_wr_bk=15649 bw_util=0.3228
n_activity=230871 dram_eff=0.4172
bk0: 2028a 278630i bk1: 2028a 278382i bk2: 2028a 278838i bk3: 2028a 277836i bk4: 2051a 278639i bk5: 2065a 278543i bk6: 2028a 277191i bk7: 2028a 276953i bk8: 2028a 273957i bk9: 2028a 274713i bk10: 2028a 276060i bk11: 2028a 275326i bk12: 2028a 277544i bk13: 2028a 277983i bk14: 2028a 277958i bk15: 2028a 276882i 

------------------------------------------------------------------------

Row_Buffer_Locality = 0.945722
Row_Buffer_Locality_read = 0.965362
Row_Buffer_Locality_write = 0.874343
Bank_Level_Parallism = 2.133305
Bank_Level_Parallism_Col = 2.054600
Bank_Level_Parallism_Ready = 1.230359
write_to_read_ratio_blp_rw_average = 0.588812
GrpLevelPara = 1.750271 

BW Util details:
bwutil = 0.322755 
total_CMD = 298412 
util_bw = 96314 
Wasted_Col = 80926 
Wasted_Row = 9358 
Idle = 111814 

BW Util Bottlenecks: 
RCDc_limit = 9146 
RCDWRc_limit = 5211 
WTRc_limit = 29206 
RTWc_limit = 95156 
CCDLc_limit = 20282 
rwq = 0 
CCDLc_limit_alone = 11756 
WTRc_limit_alone = 27540 
RTWc_limit_alone = 88296 

Commands details: 
total_CMD = 298412 
n_nop = 245866 
Read = 32508 
Write = 0 
L2_Alloc = 0 
L2_WB = 15649 
n_act = 2250 
n_pre = 2234 
n_ref = 0 
n_req = 41453 
total_req = 48157 

Dual Bus Interface Util: 
issued_total_row = 4484 
issued_total_col = 48157 
Row_Bus_Util =  0.015026 
CoL_Bus_Util = 0.161378 
Either_Row_CoL_Bus_Util = 0.176085 
Issued_on_Two_Bus_Simul_Util = 0.000318 
issued_two_Eff = 0.001808 
queue_avg = 0.881453 


dram_util_bins: 0 0 0 0 0 0 0 0 0 0
dram_eff_bins: 0 0 0 0 0 0 0 0 0 0
mrqq: max=28 avg=0.881453
Memory Partition 1: 
Cache L2_bank_002:
MSHR contents

Cache L2_bank_003:
MSHR contents

In Dram Latency Queue (total = 0): 
DRAM[1]: 16 bks, busW=4 BL=8 CL=12, tRRD=6 tCCD=2, tRCD=12 tRAS=28 tRP=12 tRC=40
n_cmd=298412 n_nop=245787 n_act=2276 n_pre=2260 n_ref_event=0 n_req=41458 n_rd=32505 n_rd_L2_A=0 n_write=0 n_wr_bk=15666 bw_util=0.3228
n_activity=231555 dram_eff=0.4161
bk0: 2028a 278041i bk1: 2028a 276584i bk2: 2028a 278585i bk3: 2028a 278473i bk4: 2057a 277011i bk5: 2056a 277420i bk6: 2028a 277739i bk7: 2028a 278155i bk8: 2028a 275902i bk9: 2028a 274990i bk10: 2028a 275428i bk11: 2028a 274722i bk12: 2028a 278600i bk13: 2028a 278031i bk14: 2028a 277263i bk15: 2028a 277990i 

------------------------------------------------------------------------

Row_Buffer_Locality = 0.945101
Row_Buffer_Locality_read = 0.964928
Row_Buffer_Locality_write = 0.873115
Bank_Level_Parallism = 2.124362
Bank_Level_Parallism_Col = 2.046992
Bank_Level_Parallism_Ready = 1.240278
write_to_read_ratio_blp_rw_average = 0.580133
GrpLevelPara = 1.742793 

BW Util details:
bwutil = 0.322849 
total_CMD = 298412 
util_bw = 96342 
Wasted_Col = 81449 
Wasted_Row = 9724 
Idle = 110897 

BW Util Bottlenecks: 
RCDc_limit = 9205 
RCDWRc_limit = 5160 
WTRc_limit = 30551 
RTWc_limit = 93271 
CCDLc_limit = 20487 
rwq = 0 
CCDLc_limit_alone = 11969 
WTRc_limit_alone = 28769 
RTWc_limit_alone = 86535 

Commands details: 
total_CMD = 298412 
n_nop = 245787 
Read = 32505 
Write = 0 
L2_Alloc = 0 
L2_WB = 15666 
n_act = 2276 
n_pre = 2260 
n_ref = 0 
n_req = 41458 
total_req = 48171 

Dual Bus Interface Util: 
issued_total_row = 4536 
issued_total_col = 48171 
Row_Bus_Util =  0.015200 
CoL_Bus_Util = 0.161424 
Either_Row_CoL_Bus_Util = 0.176350 
Issued_on_Two_Bus_Simul_Util = 0.000275 
issued_two_Eff = 0.001558 
queue_avg = 0.880538 


dram_util_bins: 0 0 0 0 0 0 0 0 0 0
dram_eff_bins: 0 0 0 0 0 0 0 0 0 0
mrqq: max=34 avg=0.880538
Memory Partition 2: 
Cache L2_bank_004:
MSHR contents

Cache L2_bank_005:
MSHR contents

In Dram Latency Queue (total = 1): 
Ready @ 96579 -   mf: uid=1636097, sid4294967295:w4294967295, part=2, addr=0x7e0cdfda1080, store, size=128, L2_WRBK  status = IN_PARTITION_DRAM_LATENCY_QUEUE (96479), 
DRAM[2]: 16 bks, busW=4 BL=8 CL=12, tRRD=6 tCCD=2, tRCD=12 tRAS=28 tRP=12 tRC=40
n_cmd=298412 n_nop=270403 n_act=2477 n_pre=2461 n_ref_event=0 n_req=20175 n_rd=16255 n_rd_L2_A=0 n_write=0 n_wr_bk=6859 bw_util=0.1549
n_activity=163086 dram_eff=0.2835
bk0: 1014a 290360i bk1: 1014a 290152i bk2: 1014a 290147i bk3: 1014a 289914i bk4: 1038a 291286i bk5: 1021a 291274i bk6: 1014a 291191i bk7: 1014a 291280i bk8: 1014a 289381i bk9: 1014a 288986i bk10: 1014a 289306i bk11: 1014a 289625i bk12: 1014a 291025i bk13: 1014a 290954i bk14: 1014a 291382i bk15: 1014a 291569i 

------------------------------------------------------------------------

Row_Buffer_Locality = 0.877224
Row_Buffer_Locality_read = 0.925192
Row_Buffer_Locality_write = 0.678316
Bank_Level_Parallism = 1.430634
Bank_Level_Parallism_Col = 1.326742
Bank_Level_Parallism_Ready = 1.054495
write_to_read_ratio_blp_rw_average = 0.506921
GrpLevelPara = 1.260102 

BW Util details:
bwutil = 0.154913 
total_CMD = 298412 
util_bw = 46228 
Wasted_Col = 45165 
Wasted_Row = 18406 
Idle = 188613 

BW Util Bottlenecks: 
RCDc_limit = 12216 
RCDWRc_limit = 7122 
WTRc_limit = 9418 
RTWc_limit = 25648 
CCDLc_limit = 7993 
rwq = 0 
CCDLc_limit_alone = 6486 
WTRc_limit_alone = 9096 
RTWc_limit_alone = 24463 

Commands details: 
total_CMD = 298412 
n_nop = 270403 
Read = 16255 
Write = 0 
L2_Alloc = 0 
L2_WB = 6859 
n_act = 2477 
n_pre = 2461 
n_ref = 0 
n_req = 20175 
total_req = 23114 

Dual Bus Interface Util: 
issued_total_row = 4938 
issued_total_col = 23114 
Row_Bus_Util =  0.016548 
CoL_Bus_Util = 0.077457 
Either_Row_CoL_Bus_Util = 0.093860 
Issued_on_Two_Bus_Simul_Util = 0.000144 
issued_two_Eff = 0.001535 
queue_avg = 0.304281 


dram_util_bins: 0 0 0 0 0 0 0 0 0 0
dram_eff_bins: 0 0 0 0 0 0 0 0 0 0
mrqq: max=13 avg=0.304281
Memory Partition 3: 
Cache L2_bank_006:
MSHR contents

Cache L2_bank_007:
MSHR contents

In Dram Latency Queue (total = 0): 
DRAM[3]: 16 bks, busW=4 BL=8 CL=12, tRRD=6 tCCD=2, tRCD=12 tRAS=28 tRP=12 tRC=40
n_cmd=298412 n_nop=270223 n_act=2565 n_pre=2549 n_ref_event=0 n_req=20184 n_rd=16258 n_rd_L2_A=0 n_write=0 n_wr_bk=6871 bw_util=0.155
n_activity=162149 dram_eff=0.2853
bk0: 1014a 289700i bk1: 1014a 290548i bk2: 1014a 290163i bk3: 1014a 289366i bk4: 1029a 290768i bk5: 1033a 290527i bk6: 1014a 291153i bk7: 1014a 290908i bk8: 1014a 288636i bk9: 1014a 288993i bk10: 1014a 289681i bk11: 1014a 289598i bk12: 1014a 290733i bk13: 1014a 290747i bk14: 1014a 290786i bk15: 1014a 291375i 

------------------------------------------------------------------------

Row_Buffer_Locality = 0.872919
Row_Buffer_Locality_read = 0.922438
Row_Buffer_Locality_write = 0.667855
Bank_Level_Parallism = 1.458067
Bank_Level_Parallism_Col = 1.340711
Bank_Level_Parallism_Ready = 1.061737
write_to_read_ratio_blp_rw_average = 0.516359
GrpLevelPara = 1.266917 

BW Util details:
bwutil = 0.155014 
total_CMD = 298412 
util_bw = 46258 
Wasted_Col = 45941 
Wasted_Row = 18406 
Idle = 187807 

BW Util Bottlenecks: 
RCDc_limit = 12652 
RCDWRc_limit = 7385 
WTRc_limit = 9533 
RTWc_limit = 26531 
CCDLc_limit = 8082 
rwq = 0 
CCDLc_limit_alone = 6483 
WTRc_limit_alone = 9263 
RTWc_limit_alone = 25202 

Commands details: 
total_CMD = 298412 
n_nop = 270223 
Read = 16258 
Write = 0 
L2_Alloc = 0 
L2_WB = 6871 
n_act = 2565 
n_pre = 2549 
n_ref = 0 
n_req = 20184 
total_req = 23129 

Dual Bus Interface Util: 
issued_total_row = 5114 
issued_total_col = 23129 
Row_Bus_Util =  0.017137 
CoL_Bus_Util = 0.077507 
Either_Row_CoL_Bus_Util = 0.094463 
Issued_on_Two_Bus_Simul_Util = 0.000181 
issued_two_Eff = 0.001916 
queue_avg = 0.307699 


dram_util_bins: 0 0 0 0 0 0 0 0 0 0
dram_eff_bins: 0 0 0 0 0 0 0 0 0 0
mrqq: max=13 avg=0.307699
Memory Partition 4: 
Cache L2_bank_008:
MSHR contents

Cache L2_bank_009:
MSHR contents

In Dram Latency Queue (total = 0): 
DRAM[4]: 16 bks, busW=4 BL=8 CL=12, tRRD=6 tCCD=2, tRCD=12 tRAS=28 tRP=12 tRC=40
n_cmd=298412 n_nop=270318 n_act=2533 n_pre=2517 n_ref_event=0 n_req=20163 n_rd=16237 n_rd_L2_A=0 n_write=0 n_wr_bk=6870 bw_util=0.1549
n_activity=162697 dram_eff=0.284
bk0: 1014a 290316i bk1: 1014a 289855i bk2: 1014a 290345i bk3: 1014a 289714i bk4: 1025a 291023i bk5: 1016a 291392i bk6: 1014a 291250i bk7: 1014a 290908i bk8: 1014a 289003i bk9: 1014a 288987i bk10: 1014a 289076i bk11: 1014a 290330i bk12: 1014a 290485i bk13: 1014a 290360i bk14: 1014a 290830i bk15: 1014a 290893i 

------------------------------------------------------------------------

Row_Buffer_Locality = 0.874374
Row_Buffer_Locality_read = 0.923570
Row_Buffer_Locality_write = 0.670912
Bank_Level_Parallism = 1.447702
Bank_Level_Parallism_Col = 1.337808
Bank_Level_Parallism_Ready = 1.054324
write_to_read_ratio_blp_rw_average = 0.514272
GrpLevelPara = 1.263820 

BW Util details:
bwutil = 0.154866 
total_CMD = 298412 
util_bw = 46214 
Wasted_Col = 45655 
Wasted_Row = 18559 
Idle = 187984 

BW Util Bottlenecks: 
RCDc_limit = 12488 
RCDWRc_limit = 7298 
WTRc_limit = 9372 
RTWc_limit = 26268 
CCDLc_limit = 8058 
rwq = 0 
CCDLc_limit_alone = 6474 
WTRc_limit_alone = 9028 
RTWc_limit_alone = 25028 

Commands details: 
total_CMD = 298412 
n_nop = 270318 
Read = 16237 
Write = 0 
L2_Alloc = 0 
L2_WB = 6870 
n_act = 2533 
n_pre = 2517 
n_ref = 0 
n_req = 20163 
total_req = 23107 

Dual Bus Interface Util: 
issued_total_row = 5050 
issued_total_col = 23107 
Row_Bus_Util =  0.016923 
CoL_Bus_Util = 0.077433 
Either_Row_CoL_Bus_Util = 0.094145 
Issued_on_Two_Bus_Simul_Util = 0.000211 
issued_two_Eff = 0.002242 
queue_avg = 0.314156 


dram_util_bins: 0 0 0 0 0 0 0 0 0 0
dram_eff_bins: 0 0 0 0 0 0 0 0 0 0
mrqq: max=12 avg=0.314156
Memory Partition 5: 
Cache L2_bank_010:
MSHR contents

Cache L2_bank_011:
MSHR contents

In Dram Latency Queue (total = 0): 
DRAM[5]: 16 bks, busW=4 BL=8 CL=12, tRRD=6 tCCD=2, tRCD=12 tRAS=28 tRP=12 tRC=40
n_cmd=298412 n_nop=270367 n_act=2510 n_pre=2494 n_ref_event=0 n_req=20162 n_rd=16237 n_rd_L2_A=0 n_write=0 n_wr_bk=6868 bw_util=0.1549
n_activity=162359 dram_eff=0.2846
bk0: 1014a 290343i bk1: 1014a 289971i bk2: 1014a 289489i bk3: 1014a 290149i bk4: 1016a 290835i bk5: 1025a 291234i bk6: 1014a 291080i bk7: 1014a 291309i bk8: 1014a 288574i bk9: 1014a 289758i bk10: 1014a 289909i bk11: 1014a 289210i bk12: 1014a 290659i bk13: 1014a 290874i bk14: 1014a 291430i bk15: 1014a 291081i 

------------------------------------------------------------------------

Row_Buffer_Locality = 0.875508
Row_Buffer_Locality_read = 0.924124
Row_Buffer_Locality_write = 0.674395
Bank_Level_Parallism = 1.446122
Bank_Level_Parallism_Col = 1.336018
Bank_Level_Parallism_Ready = 1.059936
write_to_read_ratio_blp_rw_average = 0.517308
GrpLevelPara = 1.264155 

BW Util details:
bwutil = 0.154853 
total_CMD = 298412 
util_bw = 46210 
Wasted_Col = 45466 
Wasted_Row = 18220 
Idle = 188516 

BW Util Bottlenecks: 
RCDc_limit = 12405 
RCDWRc_limit = 7323 
WTRc_limit = 9146 
RTWc_limit = 26402 
CCDLc_limit = 8060 
rwq = 0 
CCDLc_limit_alone = 6413 
WTRc_limit_alone = 8833 
RTWc_limit_alone = 25068 

Commands details: 
total_CMD = 298412 
n_nop = 270367 
Read = 16237 
Write = 0 
L2_Alloc = 0 
L2_WB = 6868 
n_act = 2510 
n_pre = 2494 
n_ref = 0 
n_req = 20162 
total_req = 23105 

Dual Bus Interface Util: 
issued_total_row = 5004 
issued_total_col = 23105 
Row_Bus_Util =  0.016769 
CoL_Bus_Util = 0.077427 
Either_Row_CoL_Bus_Util = 0.093981 
Issued_on_Two_Bus_Simul_Util = 0.000214 
issued_two_Eff = 0.002282 
queue_avg = 0.309729 


dram_util_bins: 0 0 0 0 0 0 0 0 0 0
dram_eff_bins: 0 0 0 0 0 0 0 0 0 0
mrqq: max=12 avg=0.309729

========= L2 cache stats =========
L2_cache_bank[0]: Access = 51200, Miss = 32409, Miss_rate = 0.633, Pending_hits = 2174, Reservation_fails = 0
L2_cache_bank[1]: Access = 51605, Miss = 32604, Miss_rate = 0.632, Pending_hits = 2135, Reservation_fails = 0
L2_cache_bank[2]: Access = 51167, Miss = 32409, Miss_rate = 0.633, Pending_hits = 2161, Reservation_fails = 0
L2_cache_bank[3]: Access = 51641, Miss = 32604, Miss_rate = 0.631, Pending_hits = 2147, Reservation_fails = 0
L2_cache_bank[4]: Access = 25650, Miss = 16211, Miss_rate = 0.632, Pending_hits = 1059, Reservation_fails = 0
L2_cache_bank[5]: Access = 25785, Miss = 16302, Miss_rate = 0.632, Pending_hits = 1019, Reservation_fails = 0
L2_cache_bank[6]: Access = 25635, Miss = 16211, Miss_rate = 0.632, Pending_hits = 1061, Reservation_fails = 0
L2_cache_bank[7]: Access = 25800, Miss = 16302, Miss_rate = 0.632, Pending_hits = 1084, Reservation_fails = 0
L2_cache_bank[8]: Access = 25583, Miss = 16172, Miss_rate = 0.632, Pending_hits = 1107, Reservation_fails = 0
L2_cache_bank[9]: Access = 25780, Miss = 16302, Miss_rate = 0.632, Pending_hits = 1126, Reservation_fails = 0
L2_cache_bank[10]: Access = 25568, Miss = 16172, Miss_rate = 0.633, Pending_hits = 1131, Reservation_fails = 0
L2_cache_bank[11]: Access = 25786, Miss = 16302, Miss_rate = 0.632, Pending_hits = 1075, Reservation_fails = 0
L2_total_cache_accesses = 411200
L2_total_cache_misses = 260000
L2_total_cache_miss_rate = 0.6323
L2_total_cache_pending_hits = 17279
L2_total_cache_reservation_fails = 0
L2_total_cache_breakdown:
	L2_cache_stats_breakdown[GLOBAL_ACC_R][HIT] = 133921
	L2_cache_stats_breakdown[GLOBAL_ACC_R][HIT_RESERVED] = 17279
	L2_cache_stats_breakdown[GLOBAL_ACC_R][MISS] = 40000
	L2_cache_stats_breakdown[GLOBAL_ACC_R][RESERVATION_FAIL] = 0
	L2_cache_stats_breakdown[GLOBAL_ACC_R][SECTOR_MISS] = 90000
	L2_cache_stats_breakdown[GLOBAL_ACC_R][MSHR_HIT] = 17279
	L2_cache_stats_breakdown[LOCAL_ACC_R][HIT] = 0
	L2_cache_stats_breakdown[LOCAL_ACC_R][HIT_RESERVED] = 0
	L2_cache_stats_breakdown[LOCAL_ACC_R][MISS] = 0
	L2_cache_stats_breakdown[LOCAL_ACC_R][RESERVATION_FAIL] = 0
	L2_cache_stats_breakdown[LOCAL_ACC_R][SECTOR_MISS] = 0
	L2_cache_stats_breakdown[LOCAL_ACC_R][MSHR_HIT] = 0
	L2_cache_stats_breakdown[CONST_ACC_R][HIT] = 0
	L2_cache_stats_breakdown[CONST_ACC_R][HIT_RESERVED] = 0
	L2_cache_stats_breakdown[CONST_ACC_R][MISS] = 0
	L2_cache_stats_breakdown[CONST_ACC_R][RESERVATION_FAIL] = 0
	L2_cache_stats_breakdown[CONST_ACC_R][SECTOR_MISS] = 0
	L2_cache_stats_breakdown[CONST_ACC_R][MSHR_HIT] = 0
	L2_cache_stats_breakdown[TEXTURE_ACC_R][HIT] = 0
	L2_cache_stats_breakdown[TEXTURE_ACC_R][HIT_RESERVED] = 0
	L2_cache_stats_breakdown[TEXTURE_ACC_R][MISS] = 0
	L2_cache_stats_breakdown[TEXTURE_ACC_R][RESERVATION_FAIL] = 0
	L2_cache_stats_breakdown[TEXTURE_ACC_R][SECTOR_MISS] = 0
	L2_cache_stats_breakdown[TEXTURE_ACC_R][MSHR_HIT] = 0
	L2_cache_stats_breakdown[GLOBAL_ACC_W][HIT] = 0
	L2_cache_stats_breakdown[GLOBAL_ACC_W][HIT_RESERVED] = 0
	L2_cache_stats_breakdown[GLOBAL_ACC_W][MISS] = 40000
	L2_cache_stats_breakdown[GLOBAL_ACC_W][RESERVATION_FAIL] = 0
	L2_cache_stats_breakdown[GLOBAL_ACC_W][SECTOR_MISS] = 90000
	L2_cache_stats_breakdown[GLOBAL_ACC_W][MSHR_HIT] = 0
	L2_cache_stats_breakdown[LOCAL_ACC_W][HIT] = 0
	L2_cache_stats_breakdown[LOCAL_ACC_W][HIT_RESERVED] = 0
	L2_cache_stats_breakdown[LOCAL_ACC_W][MISS] = 0
	L2_cache_stats_breakdown[LOCAL_ACC_W][RESERVATION_FAIL] = 0
	L2_cache_stats_breakdown[LOCAL_ACC_W][SECTOR_MISS] = 0
	L2_cache_stats_breakdown[LOCAL_ACC_W][MSHR_HIT] = 0
	L2_cache_stats_breakdown[L1_WRBK_ACC][HIT] = 0
	L2_cache_stats_breakdown[L1_WRBK_ACC][HIT_RESERVED] = 0
	L2_cache_stats_breakdown[L1_WRBK_ACC][MISS] = 0
	L2_cache_stats_breakdown[L1_WRBK_ACC][RESERVATION_FAIL] = 0
	L2_cache_stats_breakdown[L1_WRBK_ACC][SECTOR_MISS] = 0
	L2_cache_stats_breakdown[L1_WRBK_ACC][MSHR_HIT] = 0
	L2_cache_stats_breakdown[L2_WRBK_ACC][HIT] = 0
	L2_cache_stats_breakdown[L2_WRBK_ACC][HIT_RESERVED] = 0
	L2_cache_stats_breakdown[L2_WRBK_ACC][MISS] = 0
	L2_cache_stats_breakdown[L2_WRBK_ACC][RESERVATION_FAIL] = 0
	L2_cache_stats_breakdown[L2_WRBK_ACC][SECTOR_MISS] = 0
	L2_cache_stats_breakdown[L2_WRBK_ACC][MSHR_HIT] = 0
	L2_cache_stats_breakdown[INST_ACC_R][HIT] = 0
	L2_cache_stats_breakdown[INST_ACC_R][HIT_RESERVED] = 0
	L2_cache_stats_breakdown[INST_ACC_R][MISS] = 0
	L2_cache_stats_breakdown[INST_ACC_R][RESERVATION_FAIL] = 0
	L2_cache_stats_breakdown[INST_ACC_R][SECTOR_MISS] = 0
	L2_cache_stats_breakdown[INST_ACC_R][MSHR_HIT] = 0
	L2_cache_stats_breakdown[L1_WR_ALLOC_R][HIT] = 0
	L2_cache_stats_breakdown[L1_WR_ALLOC_R][HIT_RESERVED] = 0
	L2_cache_stats_breakdown[L1_WR_ALLOC_R][MISS] = 0
	L2_cache_stats_breakdown[L1_WR_ALLOC_R][RESERVATION_FAIL] = 0
	L2_cache_stats_breakdown[L1_WR_ALLOC_R][SECTOR_MISS] = 0
	L2_cache_stats_breakdown[L1_WR_ALLOC_R][MSHR_HIT] = 0
	L2_cache_stats_breakdown[L2_WR_ALLOC_R][HIT] = 0
	L2_cache_stats_breakdown[L2_WR_ALLOC_R][HIT_RESERVED] = 0
	L2_cache_stats_breakdown[L2_WR_ALLOC_R][MISS] = 0
	L2_cache_stats_breakdown[L2_WR_ALLOC_R][RESERVATION_FAIL] = 0
	L2_cache_stats_breakdown[L2_WR_ALLOC_R][SECTOR_MISS] = 0
	L2_cache_stats_breakdown[L2_WR_ALLOC_R][MSHR_HIT] = 0
	L2_cache_stats_breakdown[GLOBAL_ACC_R][TOTAL_ACCESS] = 281200
	L2_cache_stats_breakdown[GLOBAL_ACC_W][TOTAL_ACCESS] = 130000
L2_total_cache_reservation_fail_breakdown:
L2_cache_data_port_util = 0.158
L2_cache_fill_port_util = 0.112

icnt_total_pkts_mem_to_simt=411200
icnt_total_pkts_simt_to_mem=411200
LD_mem_lat_dist  0 0 0 0 0 0 0 0 0 0 0 0 0 0 0 0 0 0 0 0 0 0 0 0 0 0 0
ST_mem_lat_dist  0 0 0 0 0 0 0 0 0 0 0 0 0 0 0 0 0 0 0 0 0 0 0 0 0 0 0
----------------------------Interconnect-DETAILS--------------------------------
Req_Network_injected_packets_num = 411200
Req_Network_cycles = 96502
Req_Network_injected_packets_per_cycle =       4.2611 
Req_Network_conflicts_per_cycle =       2.6564
Req_Network_conflicts_per_cycle_util =       2.8349
Req_Bank_Level_Parallism =       4.5474
Req_Network_in_buffer_full_per_cycle =       0.0000
Req_Network_in_buffer_avg_util =       2.1284
Req_Network_out_buffer_full_per_cycle =       0.0000
Req_Network_out_buffer_avg_util =       0.3551

Reply_Network_injected_packets_num = 411200
Reply_Network_cycles = 96502
Reply_Network_injected_packets_per_cycle =        4.2611
Reply_Network_conflicts_per_cycle =        1.3158
Reply_Network_conflicts_per_cycle_util =       1.4048
Reply_Bank_Level_Parallism =       4.5495
Reply_Network_in_buffer_full_per_cycle =       0.0000
Reply_Network_in_buffer_avg_util =       1.4359
Reply_Network_out_buffer_full_per_cycle =       0.0000
Reply_Network_out_buffer_avg_util =       0.2841
----------------------------END-of-Interconnect-DETAILS-------------------------


gpgpu_simulation_time = 0 days, 0 hrs, 0 min, 13 sec (13 sec)
gpgpu_simulation_rate = 4050430 (inst/sec)
gpgpu_simulation_rate = 7423 (cycle/sec)
gpgpu_silicon_slowdown = 152498x
GPGPU-Sim: *** simulation thread exiting ***
GPGPU-Sim: *** exit detected ***
