

        *** GPGPU-Sim Simulator Version 4.0.0  [build gpgpu-sim_git-commit-90ec3399763d7c8512cfe7dc193473086c38ca38_modified_0.0] ***


GPGPU-Sim PTX: simulation mode 0 (can change with PTX_SIM_MODE_FUNC environment variable:
               1=functional simulation only, 0=detailed performance simulator)
GPGPU-Sim PTX: overriding embedded ptx with ptx file (PTX_SIM_USE_PTX_FILE is set)
GPGPU-Sim: Configuration options:

-save_embedded_ptx                      0 # saves ptx files embedded in binary as <n>.ptx
-keep                                   0 # keep intermediate files created by GPGPU-Sim when interfacing with external programs
-gpgpu_ptx_save_converted_ptxplus                    0 # Saved converted ptxplus to a file
-gpgpu_occupancy_sm_number                   62 # The SM number to pass to ptxas when getting register usage for computing GPU occupancy. This parameter is required in the config.
-ptx_opcode_latency_int      4,13,4,5,145,32 # Opcode latencies for integers <ADD,MAX,MUL,MAD,DIV,SHFL>Default 1,1,19,25,145,32
-ptx_opcode_latency_fp          4,13,4,4,39 # Opcode latencies for single precision floating points <ADD,MAX,MUL,MAD,DIV>Default 1,1,1,1,30
-ptx_opcode_latency_dp         8,19,8,8,330 # Opcode latencies for double precision floating points <ADD,MAX,MUL,MAD,DIV>Default 8,8,8,8,335
-ptx_opcode_latency_sfu                   20 # Opcode latencies for SFU instructionsDefault 8
-ptx_opcode_latency_tesnor                   64 # Opcode latencies for Tensor instructionsDefault 64
-ptx_opcode_initiation_int          1,1,1,1,4,4 # Opcode initiation intervals for integers <ADD,MAX,MUL,MAD,DIV,SHFL>Default 1,1,4,4,32,4
-ptx_opcode_initiation_fp            1,2,1,1,4 # Opcode initiation intervals for single precision floating points <ADD,MAX,MUL,MAD,DIV>Default 1,1,1,1,5
-ptx_opcode_initiation_dp          8,8,8,8,130 # Opcode initiation intervals for double precision floating points <ADD,MAX,MUL,MAD,DIV>Default 8,8,8,8,130
-ptx_opcode_initiation_sfu                    4 # Opcode initiation intervals for sfu instructionsDefault 8
-ptx_opcode_initiation_tensor                   64 # Opcode initiation intervals for tensor instructionsDefault 64
-cdp_latency         7200,8000,100,12000,1600 # CDP API latency <cudaStreamCreateWithFlags, cudaGetParameterBufferV2_init_perWarp, cudaGetParameterBufferV2_perKernel, cudaLaunchDeviceV2_init_perWarp, cudaLaunchDevicV2_perKernel>Default 7200,8000,100,12000,1600
-network_mode                           1 # Interconnection network mode
-inter_config_file   config_pascal_islip.icnt # Interconnection network config file
-icnt_in_buffer_limit                   64 # in_buffer_limit
-icnt_out_buffer_limit                   64 # out_buffer_limit
-icnt_subnets                           2 # subnets
-icnt_arbiter_algo                      1 # arbiter_algo
-icnt_verbose                           0 # inct_verbose
-icnt_grant_cycles                      1 # grant_cycles
-gpgpu_ptx_use_cuobjdump                    1 # Use cuobjdump to extract ptx and sass from binaries
-gpgpu_experimental_lib_support                    0 # Try to extract code from cuda libraries [Broken because of unknown cudaGetExportTable]
-checkpoint_option                      0 #  checkpointing flag (0 = no checkpoint)
-checkpoint_kernel                      1 #  checkpointing during execution of which kernel (1- 1st kernel)
-checkpoint_CTA                         0 #  checkpointing after # of CTA (< less than total CTA)
-resume_option                          0 #  resume flag (0 = no resume)
-resume_kernel                          0 #  Resume from which kernel (1= 1st kernel)
-resume_CTA                             0 #  resume from which CTA 
-checkpoint_CTA_t                       0 #  resume from which CTA 
-checkpoint_insn_Y                      0 #  resume from which CTA 
-gpgpu_ptx_convert_to_ptxplus                    0 # Convert SASS (native ISA) to ptxplus and run ptxplus
-gpgpu_ptx_force_max_capability                   61 # Force maximum compute capability
-gpgpu_ptx_inst_debug_to_file                    0 # Dump executed instructions' debug information to file
-gpgpu_ptx_inst_debug_file       inst_debug.txt # Executed instructions' debug output file
-gpgpu_ptx_inst_debug_thread_uid                    1 # Thread UID for executed instructions' debug output
-gpgpu_simd_model                       1 # 1 = post-dominator
-gpgpu_shader_core_pipeline              2048:32 # shader core pipeline config, i.e., {<nthread>:<warpsize>}
-gpgpu_tex_cache:l1  N:16:128:24,L:R:m:N:L,T:128:4,128:2 # per-shader L1 texture cache  (READ-ONLY) config  {<nsets>:<bsize>:<assoc>,<rep>:<wr>:<alloc>:<wr_alloc>,<mshr>:<N>:<merge>,<mq>:<rf>}
-gpgpu_const_cache:l1 N:128:64:2,L:R:f:N:L,S:2:64,4 # per-shader L1 constant memory cache  (READ-ONLY) config  {<nsets>:<bsize>:<assoc>,<rep>:<wr>:<alloc>:<wr_alloc>,<mshr>:<N>:<merge>,<mq>} 
-gpgpu_cache:il1     N:8:128:4,L:R:f:N:L,S:2:48,4 # shader L1 instruction cache config  {<nsets>:<bsize>:<assoc>,<rep>:<wr>:<alloc>:<wr_alloc>,<mshr>:<N>:<merge>,<mq>} 
-gpgpu_cache:dl1     S:4:128:96,L:L:s:N:L,A:256:8,16:0,32 # per-shader L1 data cache config  {<nsets>:<bsize>:<assoc>,<rep>:<wr>:<alloc>:<wr_alloc>,<mshr>:<N>:<merge>,<mq> | none}
-gpgpu_l1_banks                         2 # The number of L1 cache banks
-gpgpu_l1_banks_byte_interleaving                   32 # l1 banks byte interleaving granularity
-gpgpu_l1_banks_hashing_function                    0 # l1 banks hashing function
-gpgpu_l1_latency                      82 # L1 Hit Latency
-gpgpu_smem_latency                    24 # smem Latency
-gpgpu_cache:dl1PrefL1 S:4:128:96,L:L:s:N:L,A:256:8,16:0,32 # per-shader L1 data cache config  {<nsets>:<bsize>:<assoc>,<rep>:<wr>:<alloc>:<wr_alloc>,<mshr>:<N>:<merge>,<mq> | none}
-gpgpu_cache:dl1PrefShared S:4:128:96,L:L:s:N:L,A:256:8,16:0,32 # per-shader L1 data cache config  {<nsets>:<bsize>:<assoc>,<rep>:<wr>:<alloc>:<wr_alloc>,<mshr>:<N>:<merge>,<mq> | none}
-gpgpu_gmem_skip_L1D                    1 # global memory access skip L1D cache (implements -Xptxas -dlcm=cg, default=no skip)
-gpgpu_perfect_mem                      0 # enable perfect memory mode (no cache miss)
-n_regfile_gating_group                    4 # group of lanes that should be read/written together)
-gpgpu_clock_gated_reg_file                    0 # enable clock gated reg file for power calculations
-gpgpu_clock_gated_lanes                    0 # enable clock gated lanes for power calculations
-gpgpu_shader_registers                65536 # Number of registers per shader core. Limits number of concurrent CTAs. (default 8192)
-gpgpu_registers_per_block                 8192 # Maximum number of registers per CTA. (default 8192)
-gpgpu_ignore_resources_limitation                    1 # gpgpu_ignore_resources_limitation (default 0)
-gpgpu_shader_cta                      32 # Maximum number of concurrent CTAs in shader (default 8)
-gpgpu_num_cta_barriers                   16 # Maximum number of named barriers per CTA (default 16)
-gpgpu_n_clusters                      28 # number of processing clusters
-gpgpu_n_cores_per_cluster                    1 # number of simd cores per cluster
-gpgpu_n_cluster_ejection_buffer_size                   32 # number of packets in ejection buffer
-gpgpu_n_ldst_response_buffer_size                    2 # number of response packets in ld/st unit ejection buffer
-gpgpu_shmem_per_block                49152 # Size of shared memory per thread block or CTA (default 48kB)
-gpgpu_shmem_size                   98304 # Size of shared memory per shader core (default 16kB)
-gpgpu_adaptive_cache_config                    0 # adaptive_cache_config
-gpgpu_shmem_sizeDefault                98304 # Size of shared memory per shader core (default 16kB)
-gpgpu_shmem_size_PrefL1                98304 # Size of shared memory per shader core (default 16kB)
-gpgpu_shmem_size_PrefShared                98304 # Size of shared memory per shader core (default 16kB)
-gpgpu_shmem_num_banks                   32 # Number of banks in the shared memory in each shader core (default 16)
-gpgpu_shmem_limited_broadcast                    0 # Limit shared memory to do one broadcast per cycle (default on)
-gpgpu_shmem_warp_parts                    1 # Number of portions a warp is divided into for shared memory bank conflict check 
-gpgpu_mem_unit_ports                    1 # The number of memory transactions allowed per core cycle
-gpgpu_shmem_warp_parts                    1 # Number of portions a warp is divided into for shared memory bank conflict check 
-gpgpu_warpdistro_shader                   -1 # Specify which shader core to collect the warp size distribution from
-gpgpu_warp_issue_shader                    0 # Specify which shader core to collect the warp issue distribution from
-gpgpu_local_mem_map                    1 # Mapping from local memory space address to simulated GPU physical address space (default = enabled)
-gpgpu_num_reg_banks                   16 # Number of register banks (default = 8)
-gpgpu_reg_bank_use_warp_id                    0 # Use warp ID in mapping registers to banks (default = off)
-gpgpu_sub_core_model                    1 # Sub Core Volta/Pascal model (default = off)
-gpgpu_enable_specialized_operand_collector                    0 # enable_specialized_operand_collector
-gpgpu_operand_collector_num_units_sp                    4 # number of collector units (default = 4)
-gpgpu_operand_collector_num_units_dp                    0 # number of collector units (default = 0)
-gpgpu_operand_collector_num_units_sfu                    4 # number of collector units (default = 4)
-gpgpu_operand_collector_num_units_int                    0 # number of collector units (default = 0)
-gpgpu_operand_collector_num_units_tensor_core                    4 # number of collector units (default = 4)
-gpgpu_operand_collector_num_units_mem                    2 # number of collector units (default = 2)
-gpgpu_operand_collector_num_units_gen                    8 # number of collector units (default = 0)
-gpgpu_operand_collector_num_in_ports_sp                    1 # number of collector unit in ports (default = 1)
-gpgpu_operand_collector_num_in_ports_dp                    0 # number of collector unit in ports (default = 0)
-gpgpu_operand_collector_num_in_ports_sfu                    1 # number of collector unit in ports (default = 1)
-gpgpu_operand_collector_num_in_ports_int                    0 # number of collector unit in ports (default = 0)
-gpgpu_operand_collector_num_in_ports_tensor_core                    1 # number of collector unit in ports (default = 1)
-gpgpu_operand_collector_num_in_ports_mem                    1 # number of collector unit in ports (default = 1)
-gpgpu_operand_collector_num_in_ports_gen                    8 # number of collector unit in ports (default = 0)
-gpgpu_operand_collector_num_out_ports_sp                    1 # number of collector unit in ports (default = 1)
-gpgpu_operand_collector_num_out_ports_dp                    0 # number of collector unit in ports (default = 0)
-gpgpu_operand_collector_num_out_ports_sfu                    1 # number of collector unit in ports (default = 1)
-gpgpu_operand_collector_num_out_ports_int                    0 # number of collector unit in ports (default = 0)
-gpgpu_operand_collector_num_out_ports_tensor_core                    1 # number of collector unit in ports (default = 1)
-gpgpu_operand_collector_num_out_ports_mem                    1 # number of collector unit in ports (default = 1)
-gpgpu_operand_collector_num_out_ports_gen                    8 # number of collector unit in ports (default = 0)
-gpgpu_coalesce_arch                   61 # Coalescing arch (GT200 = 13, Fermi = 20)
-gpgpu_num_sched_per_core                    4 # Number of warp schedulers per core
-gpgpu_max_insn_issue_per_warp                    2 # Max number of instructions that can be issued per warp in one cycle by scheduler (either 1 or 2)
-gpgpu_dual_issue_diff_exec_units                    1 # should dual issue use two different execution unit resources (Default = 1)
-gpgpu_simt_core_sim_order                    1 # Select the simulation order of cores in a cluster (0=Fix, 1=Round-Robin)
-gpgpu_pipeline_widths 4,0,0,4,4,4,0,0,4,4,8 # Pipeline widths ID_OC_SP,ID_OC_DP,ID_OC_INT,ID_OC_SFU,ID_OC_MEM,OC_EX_SP,OC_EX_DP,OC_EX_INT,OC_EX_SFU,OC_EX_MEM,EX_WB,ID_OC_TENSOR_CORE,OC_EX_TENSOR_CORE
-gpgpu_tensor_core_avail                    0 # Tensor Core Available (default=0)
-gpgpu_num_sp_units                     4 # Number of SP units (default=1)
-gpgpu_num_dp_units                     0 # Number of DP units (default=0)
-gpgpu_num_int_units                    0 # Number of INT units (default=0)
-gpgpu_num_sfu_units                    4 # Number of SF units (default=1)
-gpgpu_num_tensor_core_units                    0 # Number of tensor_core units (default=1)
-gpgpu_num_mem_units                    1 # Number if ldst units (default=1) WARNING: not hooked up to anything
-gpgpu_scheduler                      gto # Scheduler configuration: < lrr | gto | two_level_active > If two_level_active:<num_active_warps>:<inner_prioritization>:<outer_prioritization>For complete list of prioritization values see shader.h enum scheduler_prioritization_typeDefault: gto
-gpgpu_concurrent_kernel_sm                    0 # Support concurrent kernels on a SM (default = disabled)
-gpgpu_perfect_inst_const_cache                    1 # perfect inst and const cache mode, so all inst and const hits in the cache(default = disabled)
-gpgpu_inst_fetch_throughput                    8 # the number of fetched intruction per warp each cycle
-gpgpu_reg_file_port_throughput                    2 # the number ports of the register file
-specialized_unit_1         0,4,4,4,4,BRA # specialized unit config {<enabled>,<num_units>:<latency>:<initiation>,<ID_OC_SPEC>:<OC_EX_SPEC>,<NAME>}
-specialized_unit_2         0,4,4,4,4,BRA # specialized unit config {<enabled>,<num_units>:<latency>:<initiation>,<ID_OC_SPEC>:<OC_EX_SPEC>,<NAME>}
-specialized_unit_3         0,4,4,4,4,BRA # specialized unit config {<enabled>,<num_units>:<latency>:<initiation>,<ID_OC_SPEC>:<OC_EX_SPEC>,<NAME>}
-specialized_unit_4         0,4,4,4,4,BRA # specialized unit config {<enabled>,<num_units>:<latency>:<initiation>,<ID_OC_SPEC>:<OC_EX_SPEC>,<NAME>}
-specialized_unit_5         0,4,4,4,4,BRA # specialized unit config {<enabled>,<num_units>:<latency>:<initiation>,<ID_OC_SPEC>:<OC_EX_SPEC>,<NAME>}
-specialized_unit_6         0,4,4,4,4,BRA # specialized unit config {<enabled>,<num_units>:<latency>:<initiation>,<ID_OC_SPEC>:<OC_EX_SPEC>,<NAME>}
-specialized_unit_7         0,4,4,4,4,BRA # specialized unit config {<enabled>,<num_units>:<latency>:<initiation>,<ID_OC_SPEC>:<OC_EX_SPEC>,<NAME>}
-specialized_unit_8         0,4,4,4,4,BRA # specialized unit config {<enabled>,<num_units>:<latency>:<initiation>,<ID_OC_SPEC>:<OC_EX_SPEC>,<NAME>}
-gpgpu_perf_sim_memcpy                    1 # Fill the L2 cache on memcpy
-gpgpu_simple_dram_model                    0 # simple_dram_model with fixed latency and BW
-gpgpu_dram_scheduler                    1 # 0 = fifo, 1 = FR-FCFS (defaul)
-gpgpu_dram_partition_queues          32:32:32:32 # i2$:$2d:d2$:$2i
-l2_ideal                               0 # Use a ideal L2 cache that always hit
-gpgpu_cache:dl2     S:64:128:16,L:B:m:L:P,A:256:64,16:0,32 # unified banked L2 data cache config  {<nsets>:<bsize>:<assoc>,<rep>:<wr>:<alloc>:<wr_alloc>,<mshr>:<N>:<merge>,<mq>}
-gpgpu_cache:dl2_texture_only                    0 # L2 cache used for texture only
-gpgpu_n_mem                           12 # number of memory modules (e.g. memory controllers) in gpu
-gpgpu_n_sub_partition_per_mchannel                    2 # number of memory subpartition in each memory module
-gpgpu_n_mem_per_ctrlr                    1 # number of memory chips per memory controller
-gpgpu_memlatency_stat                   14 # track and display latency statistics 0x2 enables MC, 0x4 enables queue logs
-gpgpu_frfcfs_dram_sched_queue_size                   64 # 0 = unlimited (default); # entries per chip
-gpgpu_dram_return_queue_size                   64 # 0 = unlimited (default); # entries per chip
-gpgpu_dram_buswidth                    4 # default = 4 bytes (8 bytes per cycle at DDR)
-gpgpu_dram_burst_length                    8 # Burst length of each DRAM request (default = 4 data bus cycle)
-dram_data_command_freq_ratio                    4 # Frequency ratio between DRAM data bus and command bus (default = 2 times, i.e. DDR)
-gpgpu_dram_timing_opt nbk=16:CCD=2:RRD=8:RCD=16:RAS=37:RP=16:RC=52: CL=16:WL=6:CDLR=7:WR=16:nbkgrp=4:CCDL=4:RTPL=3 # DRAM timing parameters = {nbk:tCCD:tRRD:tRCD:tRAS:tRP:tRC:CL:WL:tCDLR:tWR:nbkgrp:tCCDL:tRTPL}
-gpgpu_l2_rop_latency                  120 # ROP queue latency (default 85)
-dram_latency                         100 # DRAM latency (default 30)
-dram_dual_bus_interface                    0 # dual_bus_interface (default = 0) 
-dram_bnk_indexing_policy                    0 # dram_bnk_indexing_policy (0 = normal indexing, 1 = Xoring with the higher bits) (Default = 0)
-dram_bnkgrp_indexing_policy                    1 # dram_bnkgrp_indexing_policy (0 = take higher bits, 1 = take lower bits) (Default = 0)
-dram_seperate_write_queue_enable                    0 # Seperate_Write_Queue_Enable
-dram_write_queue_size             32:28:16 # Write_Queue_Size
-dram_elimnate_rw_turnaround                    0 # elimnate_rw_turnaround i.e set tWTR and tRTW = 0
-icnt_flit_size                        40 # icnt_flit_size
-gpgpu_mem_addr_mapping dramid@8;00000000.00000000.00000000.00000000.0000RRRR.RRRRRRRR.RBBBCCCC.BCCSSSSS # mapping memory address to dram model {dramid@<start bit>;<memory address map>}
-gpgpu_mem_addr_test                    0 # run sweep test to check address mapping for aliased address
-gpgpu_mem_address_mask                    1 # 0 = old addressing mask, 1 = new addressing mask, 2 = new add. mask + flipped bank sel and chip sel bits
-gpgpu_memory_partition_indexing                    4 # 0 = no indexing, 1 = bitwise xoring, 2 = IPoly, 3 = custom indexing
-gpuwattch_xml_file         gpuwattch.xml # GPUWattch XML file
-power_simulation_enabled                    0 # Turn on power simulator (1=On, 0=Off)
-power_per_cycle_dump                    0 # Dump detailed power output each cycle
-power_trace_enabled                    0 # produce a file for the power trace (1=On, 0=Off)
-power_trace_zlevel                     6 # Compression level of the power trace output log (0=no comp, 9=highest)
-steady_power_levels_enabled                    0 # produce a file for the steady power levels (1=On, 0=Off)
-steady_state_definition                  8:4 # allowed deviation:number of samples
-gpgpu_max_cycle                        0 # terminates gpu simulation early (0 = no limit)
-gpgpu_max_insn                 100000000 # terminates gpu simulation early (0 = no limit)
-gpgpu_max_cta                          0 # terminates gpu simulation early (0 = no limit)
-gpgpu_max_completed_cta                    0 # terminates gpu simulation early (0 = no limit)
-gpgpu_runtime_stat                   500 # display runtime statistics such as dram utilization {<freq>:<flag>}
-liveness_message_freq                    1 # Minimum number of seconds between simulation liveness messages (0 = always print)
-gpgpu_compute_capability_major                    6 # Major compute capability version number
-gpgpu_compute_capability_minor                    1 # Minor compute capability version number
-gpgpu_flush_l1_cache                    1 # Flush L1 cache at the end of each kernel call
-gpgpu_flush_l2_cache                    0 # Flush L2 cache at the end of each kernel call
-gpgpu_deadlock_detect                    1 # Stop the simulation at deadlock (1=on (default), 0=off)
-gpgpu_ptx_instruction_classification                    0 # if enabled will classify ptx instruction types per kernel (Max 255 kernels now)
-gpgpu_ptx_sim_mode                     0 # Select between Performance (default) or Functional simulation (1)
-gpgpu_clock_domains 1417.0:1417.0:1417.0:2500.0 # Clock Domain Frequencies in MhZ {<Core Clock>:<ICNT Clock>:<L2 Clock>:<DRAM Clock>}
-gpgpu_max_concurrent_kernel                    8 # maximum kernels that can run concurrently on GPU
-gpgpu_cflog_interval                    0 # Interval between each snapshot in control flow logger
-visualizer_enabled                     0 # Turn on visualizer output (1=On, 0=Off)
-visualizer_outputfile                 NULL # Specifies the output log file for visualizer
-visualizer_zlevel                      6 # Compression level of the visualizer output log (0=no comp, 9=highest)
-gpgpu_stack_size_limit                 1024 # GPU thread stack size
-gpgpu_heap_size_limit              8388608 # GPU malloc heap size 
-gpgpu_runtime_sync_depth_limit                    2 # GPU device runtime synchronize depth
-gpgpu_runtime_pending_launch_count_limit                 2048 # GPU device runtime pending launch count
-trace_enabled                          0 # Turn on traces
-trace_components                    none # comma seperated list of traces to enable. Complete list found in trace_streams.tup. Default none
-trace_sampling_core                    0 # The core which is printed using CORE_DPRINTF. Default 0
-trace_sampling_memory_partition                   -1 # The memory partition which is printed using MEMPART_DPRINTF. Default -1 (i.e. all)
-enable_ptx_file_line_stats                    1 # Turn on PTX source line statistic profiling. (1 = On)
-ptx_line_stats_filename gpgpu_inst_stats.txt # Output file for PTX source line statistics.
-gpgpu_kernel_launch_latency                 5000 # Kernel launch latency in cycles. Default: 0
-gpgpu_cdp_enabled                      0 # Turn on CDP
-gpgpu_TB_launch_latency                    0 # thread block launch latency in cycles. Default: 0
DRAM Timing Options:
nbk                                    16 # number of banks
CCD                                     2 # column to column delay
RRD                                     8 # minimal delay between activation of rows in different banks
RCD                                    16 # row to column delay
RAS                                    37 # time needed to activate row
RP                                     16 # time needed to precharge (deactivate) row
RC                                     52 # row cycle time
CDLR                                    7 # switching from write to read (changes tWTR)
WR                                     16 # last data-in to row precharge
CL                                     16 # CAS latency
WL                                      6 # Write latency
nbkgrp                                  4 # number of bank groups
CCDL                                    4 # column to column delay between accesses to different bank groups
RTPL                                    3 # read to precharge delay between accesses to different bank groups
Total number of memory sub partition = 24
addr_dec_mask[CHIP]  = 0000000000000000 	high:64 low:0
addr_dec_mask[BK]    = 0000000000007080 	high:15 low:7
addr_dec_mask[ROW]   = 000000000fff8000 	high:28 low:15
addr_dec_mask[COL]   = 0000000000000f7f 	high:12 low:0
addr_dec_mask[BURST] = 000000000000001f 	high:5 low:0
sub_partition_id_mask = 0000000000000080
GPGPU-Sim uArch: clock freqs: 1417000000.000000:1417000000.000000:1417000000.000000:2500000000.000000
GPGPU-Sim uArch: clock periods: 0.00000000070571630205:0.00000000070571630205:0.00000000070571630205:0.00000000040000000000
*** Initializing Memory Statistics ***
GPGPU-Sim uArch: interconnect node map (shaderID+MemID to icntID)
GPGPU-Sim uArch: Memory nodes ID start from index: 28
GPGPU-Sim uArch:    0   1   2   3   4   5   6
GPGPU-Sim uArch:    7   8   9  10  11  12  13
GPGPU-Sim uArch:   14  15  16  17  18  19  20
GPGPU-Sim uArch:   21  22  23  24  25  26  27
GPGPU-Sim uArch:   28  29  30  31  32  33  34
GPGPU-Sim uArch:   35  36  37  38  39  40  41
GPGPU-Sim uArch:   42  43  44  45  46  47  48
GPGPU-Sim uArch:   49  50  51
GPGPU-Sim uArch: interconnect node reverse map (icntID to shaderID+MemID)
GPGPU-Sim uArch: Memory nodes start from ID: 28
GPGPU-Sim uArch:    0   1   2   3   4   5   6
GPGPU-Sim uArch:    7   8   9  10  11  12  13
GPGPU-Sim uArch:   14  15  16  17  18  19  20
GPGPU-Sim uArch:   21  22  23  24  25  26  27
GPGPU-Sim uArch:   28  29  30  31  32  33  34
GPGPU-Sim uArch:   35  36  37  38  39  40  41
GPGPU-Sim uArch:   42  43  44  45  46  47  48
GPGPU-Sim uArch:   49  50  51
cb49321c35b0c0b9730ad9e2f895e55c  /root/test/LIB/ispass-2009-LIB
Extracting PTX file and ptxas options    1: ispass-2009-LIB.1.sm_30.ptx -arch=sm_30
Extracting PTX file and ptxas options    2: ispass-2009-LIB.2.sm_35.ptx -arch=sm_35
Extracting PTX file and ptxas options    3: ispass-2009-LIB.3.sm_50.ptx -arch=sm_50
Extracting PTX file and ptxas options    4: ispass-2009-LIB.4.sm_60.ptx -arch=sm_60
Extracting PTX file and ptxas options    5: ispass-2009-LIB.5.sm_62.ptx -arch=sm_62
GPGPU-Sim uArch: performance model initialization complete.
self exe links to: /root/test/LIB/ispass-2009-LIB
self exe links to: /root/test/LIB/ispass-2009-LIB
10.1
GPGPU-Sim PTX: __cudaRegisterFatBinary, fat_cubin_handle = 1, filename=default
self exe links to: /root/test/LIB/ispass-2009-LIB
Running md5sum using "md5sum /root/test/LIB/ispass-2009-LIB "
self exe links to: /root/test/LIB/ispass-2009-LIB
Extracting specific PTX file named ispass-2009-LIB.1.sm_30.ptx 
Extracting specific PTX file named ispass-2009-LIB.2.sm_35.ptx 
Extracting specific PTX file named ispass-2009-LIB.3.sm_50.ptx 
Extracting specific PTX file named ispass-2009-LIB.4.sm_60.ptx 
Extracting specific PTX file named ispass-2009-LIB.5.sm_62.ptx 
GPGPU-Sim PTX: __cudaRegisterFunction _Z29Pathcalc_Portfolio_KernelGPU2Pf : hostFun 0x0x404520, fat_cubin_handle = 1
GPGPU-Sim PTX: Parsing ispass-2009-LIB.1.sm_30.ptx
GPGPU-Sim PTX: allocating constant region for "N" from 0x100 to 0x104 (global memory space) 1
GPGPU-Sim PTX: allocating constant region for "Nmat" from 0x104 to 0x108 (global memory space) 2
GPGPU-Sim PTX: allocating constant region for "Nopt" from 0x108 to 0x10c (global memory space) 3
GPGPU-Sim PTX: allocating constant region for "maturities" from 0x180 to 0x1bc (global memory space) 4
GPGPU-Sim PTX: allocating constant region for "delta" from 0x1bc to 0x1c0 (global memory space) 5
GPGPU-Sim PTX: allocating constant region for "swaprates" from 0x200 to 0x23c (global memory space) 6
GPGPU-Sim PTX: allocating constant region for "lambda" from 0x280 to 0x3c0 (global memory space) 7
GPGPU-Sim PTX: allocating stack frame region for .local "__local_depot0" from 0x0 to 0x3840
GPGPU-Sim PTX: instruction assembly for function '_Z28Pathcalc_Portfolio_KernelGPUPfS_'...   done.
GPGPU-Sim PTX: allocating stack frame region for .local "__local_depot1" from 0x0 to 0x3c0
GPGPU-Sim PTX: instruction assembly for function '_Z29Pathcalc_Portfolio_KernelGPU2Pf'...   done.
GPGPU-Sim PTX: finished parsing EMBEDDED .ptx file ispass-2009-LIB.1.sm_30.ptx
GPGPU-Sim PTX: Parsing ispass-2009-LIB.2.sm_35.ptx
GPGPU-Sim PTX: Warning N was declared previous at ispass-2009-LIB.1.sm_30.ptx:14 skipping new declaration
GPGPU-Sim PTX: Warning Nmat was declared previous at ispass-2009-LIB.1.sm_30.ptx:15 skipping new declaration
GPGPU-Sim PTX: Warning Nopt was declared previous at ispass-2009-LIB.1.sm_30.ptx:16 skipping new declaration
GPGPU-Sim PTX: Warning maturities was declared previous at ispass-2009-LIB.1.sm_30.ptx:17 skipping new declaration
GPGPU-Sim PTX: Warning delta was declared previous at ispass-2009-LIB.1.sm_30.ptx:18 skipping new declaration
GPGPU-Sim PTX: Warning swaprates was declared previous at ispass-2009-LIB.1.sm_30.ptx:19 skipping new declaration
GPGPU-Sim PTX: Warning lambda was declared previous at ispass-2009-LIB.1.sm_30.ptx:20 skipping new declaration
GPGPU-Sim PTX: Warning __local_depot0 was declared previous at ispass-2009-LIB.1.sm_30.ptx:27 skipping new declaration
GPGPU-Sim PTX: Warning %SP was declared previous at ispass-2009-LIB.1.sm_30.ptx:28 skipping new declaration
GPGPU-Sim PTX: Warning %SPL was declared previous at ispass-2009-LIB.1.sm_30.ptx:29 skipping new declaration
GPGPU-Sim PTX: Warning %p0 was declared previous at ispass-2009-LIB.1.sm_30.ptx:30 skipping new declaration
GPGPU-Sim PTX: Warning %p1 was declared previous at ispass-2009-LIB.1.sm_30.ptx:30 skipping new declaration
GPGPU-Sim PTX: Warning %p2 was declared previous at ispass-2009-LIB.1.sm_30.ptx:30 skipping new declaration
GPGPU-Sim PTX: Warning %p3 was declared previous at ispass-2009-LIB.1.sm_30.ptx:30 skipping new declaration
GPGPU-Sim PTX: Warning %p4 was declared previous at ispass-2009-LIB.1.sm_30.ptx:30 skipping new declaration
GPGPU-Sim PTX: Warning %p5 was declared previous at ispass-2009-LIB.1.sm_30.ptx:30 skipping new declaration
GPGPU-Sim PTX: Warning %p6 was declared previous at ispass-2009-LIB.1.sm_30.ptx:30 skipping new declaration
GPGPU-Sim PTX: Warning %p7 was declared previous at ispass-2009-LIB.1.sm_30.ptx:30 skipping new declaration
GPGPU-Sim PTX: Warning %p8 was declared previous at ispass-2009-LIB.1.sm_30.ptx:30 skipping new declaration
GPGPU-Sim PTX: Warning %p9 was declared previous at ispass-2009-LIB.1.sm_30.ptx:30 skipping new declaration
GPGPU-Sim PTX: Warning %p10 was declared previous at ispass-2009-LIB.1.sm_30.ptx:30 skipping new declaration
GPGPU-Sim PTX: Warning %p11 was declared previous at ispass-2009-LIB.1.sm_30.ptx:30 skipping new declaration
GPGPU-Sim PTX: Warning %p12 was declared previous at ispass-2009-LIB.1.sm_30.ptx:30 skipping new declaration
GPGPU-Sim PTX: Warning %p13 was declared previous at ispass-2009-LIB.1.sm_30.ptx:30 skipping new declaration
GPGPU-Sim PTX: Warning %p14 was declared previous at ispass-2009-LIB.1.sm_30.ptx:30 skipping new declaration
GPGPU-Sim PTX: Warning %p15 was declared previous at ispass-2009-LIB.1.sm_30.ptx:30 skipping new declaration
GPGPU-Sim PTX: Warning %p16 was declared previous at ispass-2009-LIB.1.sm_30.ptx:30 skipping new declaration
GPGPU-Sim PTX: Warning %p17 was declared previous at ispass-2009-LIB.1.sm_30.ptx:30 skipping new declaration
GPGPU-Sim PTX: Warning %p18 was declared previous at ispass-2009-LIB.1.sm_30.ptx:30 skipping new declaration
GPGPU-Sim PTX: Warning %p19 was declared previous at ispass-2009-LIB.1.sm_30.ptx:30 skipping new declaration
GPGPU-Sim PTX: Warning %p20 was declared previous at ispass-2009-LIB.1.sm_30.ptx:30 skipping new declaration
GPGPU-Sim PTX: Warning %p21 was declared previous at ispass-2009-LIB.1.sm_30.ptx:30 skipping new declaration
GPGPU-Sim PTX: Warning %p22 was declared previous at ispass-2009-LIB.1.sm_30.ptx:30 skipping new declaration
GPGPU-Sim PTX: Warning %p23 was declared previous at ispass-2009-LIB.1.sm_30.ptx:30 skipping new declaration
GPGPU-Sim PTX: Warning %p24 was declared previous at ispass-2009-LIB.1.sm_30.ptx:30 skipping new declaration
GPGPU-Sim PTX: Warning %p25 was declared previous at ispass-2009-LIB.1.sm_30.ptx:30 skipping new declaration
GPGPU-Sim PTX: Warning %p26 was declared previous at ispass-2009-LIB.1.sm_30.ptx:30 skipping new declaration
GPGPU-Sim PTX: Warning %p27 was declared previous at ispass-2009-LIB.1.sm_30.ptx:30 skipping new declaration
GPGPU-Sim PTX: Warning %p28 was declared previous at ispass-2009-LIB.1.sm_30.ptx:30 skipping new declaration
GPGPU-Sim PTX: Warning %p29 was declared previous at ispass-2009-LIB.1.sm_30.ptx:30 skipping new declaration
GPGPU-Sim PTX: Warning %p30 was declared previous at ispass-2009-LIB.1.sm_30.ptx:30 skipping new declaration
GPGPU-Sim PTX: Warning %p31 was declared previous at ispass-2009-LIB.1.sm_30.ptx:30 skipping new declaration
GPGPU-Sim PTX: Warning %p32 was declared previous at ispass-2009-LIB.1.sm_30.ptx:30 skipping new declaration
GPGPU-Sim PTX: Warning %p33 was declared previous at ispass-2009-LIB.1.sm_30.ptx:30 skipping new declaration
GPGPU-Sim PTX: Warning %p34 was declared previous at ispass-2009-LIB.1.sm_30.ptx:30 skipping new declaration
GPGPU-Sim PTX: Warning %p35 was declared previous at ispass-2009-LIB.1.sm_30.ptx:30 skipping new declaration
GPGPU-Sim PTX: Warning %p36 was declared previous at ispass-2009-LIB.1.sm_30.ptx:30 skipping new declaration
GPGPU-Sim PTX: Warning %p37 was declared previous at ispass-2009-LIB.1.sm_30.ptx:30 skipping new declaration
GPGPU-Sim PTX: Warning %p38 was declared previous at ispass-2009-LIB.1.sm_30.ptx:30 skipping new declaration
GPGPU-Sim PTX: Warning %p39 was declared previous at ispass-2009-LIB.1.sm_30.ptx:30 skipping new declaration
GPGPU-Sim PTX: Warning %p40 was declared previous at ispass-2009-LIB.1.sm_30.ptx:30 skipping new declaration
GPGPU-Sim PTX: Warning %p41 was declared previous at ispass-2009-LIB.1.sm_30.ptx:30 skipping new declaration
GPGPU-Sim PTX: Warning %p42 was declared previous at ispass-2009-LIB.1.sm_30.ptx:30 skipping new declaration
GPGPU-Sim PTX: Warning %p43 was declared previous at ispass-2009-LIB.1.sm_30.ptx:30 skipping new declaration
GPGPU-Sim PTX: Warning %p44 was declared previous at ispass-2009-LIB.1.sm_30.ptx:30 skipping new declaration
GPGPU-Sim PTX: Warning %p45 was declared previous at ispass-2009-LIB.1.sm_30.ptx:30 skipping new declaration
GPGPU-Sim PTX: Warning %p46 was declared previous at ispass-2009-LIB.1.sm_30.ptx:30 skipping new declaration
GPGPU-Sim PTX: Warning %p47 was declared previous at ispass-2009-LIB.1.sm_30.ptx:30 skipping new declaration
GPGPU-Sim PTX: Warning %p48 was declared previous at ispass-2009-LIB.1.sm_30.ptx:30 skipping new declaration
GPGPU-Sim PTX: Warning %p49 was declared previous at ispass-2009-LIB.1.sm_30.ptx:30 skipping new declaration
GPGPU-Sim PTX: Warning %p50 was declared previous at ispass-2009-LIB.1.sm_30.ptx:30 skipping new declaration
GPGPU-Sim PTX: Warning %p51 was declared previous at ispass-2009-LIB.1.sm_30.ptx:30 skipping new declaration
GPGPU-Sim PTX: Warning %p52 was declared previous at ispass-2009-LIB.1.sm_30.ptx:30 skipping new declaration
GPGPU-Sim PTX: Warning %p53 was declared previous at ispass-2009-LIB.1.sm_30.ptx:30 skipping new declaration
GPGPU-Sim PTX: Warning %p54 was declared previous at ispass-2009-LIB.1.sm_30.ptx:30 skipping new declaration
GPGPU-Sim PTX: Warning %p55 was declared previous at ispass-2009-LIB.1.sm_30.ptx:30 skipping new declaration
GPGPU-Sim PTX: Warning %p56 was declared previous at ispass-2009-LIB.1.sm_30.ptx:30 skipping new declaration
GPGPU-Sim PTX: Warning %p57 was declared previous at ispass-2009-LIB.1.sm_30.ptx:30 skipping new declaration
GPGPU-Sim PTX: Warning %p58 was declared previous at ispass-2009-LIB.1.sm_30.ptx:30 skipping new declaration
GPGPU-Sim PTX: Warning %p59 was declared previous at ispass-2009-LIB.1.sm_30.ptx:30 skipping new declaration
GPGPU-Sim PTX: Warning %p60 was declared previous at ispass-2009-LIB.1.sm_30.ptx:30 skipping new declaration
GPGPU-Sim PTX: Warning %p61 was declared previous at ispass-2009-LIB.1.sm_30.ptx:30 skipping new declaration
GPGPU-Sim PTX: Warning %p62 was declared previous at ispass-2009-LIB.1.sm_30.ptx:30 skipping new declaration
GPGPU-Sim PTX: Warning %p63 was declared previous at ispass-2009-LIB.1.sm_30.ptx:30 skipping new declaration
GPGPU-Sim PTX: Warning %p64 was declared previous at ispass-2009-LIB.1.sm_30.ptx:30 skipping new declaration
GPGPU-Sim PTX: Warning %p65 was declared previous at ispass-2009-LIB.1.sm_30.ptx:30 skipping new declaration
GPGPU-Sim PTX: Warning %p66 was declared previous at ispass-2009-LIB.1.sm_30.ptx:30 skipping new declaration
GPGPU-Sim PTX: Warning %p67 was declared previous at ispass-2009-LIB.1.sm_30.ptx:30 skipping new declaration
GPGPU-Sim PTX: Warning %p68 was declared previous at ispass-2009-LIB.1.sm_30.ptx:30 skipping new declaration
GPGPU-Sim PTX: Warning %p69 was declared previous at ispass-2009-LIB.1.sm_30.ptx:30 skipping new declaration
GPGPU-Sim PTX: Warning %p70 was declared previous at ispass-2009-LIB.1.sm_30.ptx:30 skipping new declaration
GPGPU-Sim PTX: Warning %p71 was declared previous at ispass-2009-LIB.1.sm_30.ptx:30 skipping new declaration
GPGPU-Sim PTX: Warning %p72 was declared previous at ispass-2009-LIB.1.sm_30.ptx:30 skipping new declaration
GPGPU-Sim PTX: Warning %p73 was declared previous at ispass-2009-LIB.1.sm_30.ptx:30 skipping new declaration
GPGPU-Sim PTX: Warning %p74 was declared previous at ispass-2009-LIB.1.sm_30.ptx:30 skipping new declaration
GPGPU-Sim PTX: Warning %p75 was declared previous at ispass-2009-LIB.1.sm_30.ptx:30 skipping new declaration
GPGPU-Sim PTX: Warning %p76 was declared previous at ispass-2009-LIB.1.sm_30.ptx:30 skipping new declaration
GPGPU-Sim PTX: Warning %p77 was declared previous at ispass-2009-LIB.1.sm_30.ptx:30 skipping new declaration
GPGPU-Sim PTX: Warning %p78 was declared previous at ispass-2009-LIB.1.sm_30.ptx:30 skipping new declaration
GPGPU-Sim PTX: Warning %p79 was declared previous at ispass-2009-LIB.1.sm_30.ptx:30 skipping new declaration
GPGPU-Sim PTX: Warning %p80 was declared previous at ispass-2009-LIB.1.sm_30.ptx:30 skipping new declaration
GPGPU-Sim PTX: Warning %p81 was declared previous at ispass-2009-LIB.1.sm_30.ptx:30 skipping new declaration
GPGPU-Sim PTX: Warning %p82 was declared previous at ispass-2009-LIB.1.sm_30.ptx:30 skipping new declaration
GPGPU-Sim PTX: Warning %p83 was declared previous at ispass-2009-LIB.1.sm_30.ptx:30 skipping new declaration
GPGPU-Sim PTX: Warning %p84 was declared previous at ispass-2009-LIB.1.sm_30.ptx:30 skipping new declaration
GPGPU-Sim PTX: Warning %p85 was declared previous at ispass-2009-LIB.1.sm_30.ptx:30 skipping new declaration
GPGPU-Sim PTX: Warning %p86 was declared previous at ispass-2009-LIB.1.sm_30.ptx:30 skipping new declaration
GPGPU-Sim PTX: Warning %p87 was declared previous at ispass-2009-LIB.1.sm_30.ptx:30 skipping new declaration
GPGPU-Sim PTX: Warning %p88 was declared previous at ispass-2009-LIB.1.sm_30.ptx:30 skipping new declaration
GPGPU-Sim PTX: Warning %p89 was declared previous at ispass-2009-LIB.1.sm_30.ptx:30 skipping new declaration
GPGPU-Sim PTX: Warning %p90 was declared previous at ispass-2009-LIB.1.sm_30.ptx:30 skipping new declaration
GPGPU-Sim PTX: Warning %f0 was declared previous at ispass-2009-LIB.1.sm_30.ptx:31 skipping new declaration
GPGPU-Sim PTX: Warning %f1 was declared previous at ispass-2009-LIB.1.sm_30.ptx:31 skipping new declaration
GPGPU-Sim PTX: Warning %f2 was declared previous at ispass-2009-LIB.1.sm_30.ptx:31 skipping new declaration
GPGPU-Sim PTX: Warning %f3 was declared previous at ispass-2009-LIB.1.sm_30.ptx:31 skipping new declaration
GPGPU-Sim PTX: Warning %f4 was declared previous at ispass-2009-LIB.1.sm_30.ptx:31 skipping new declaration
GPGPU-Sim PTX: Warning %f5 was declared previous at ispass-2009-LIB.1.sm_30.ptx:31 skipping new declaration
GPGPU-Sim PTX: Warning %f6 was declared previous at ispass-2009-LIB.1.sm_30.ptx:31 skipping new declaration
GPGPU-Sim PTX: Warning %f7 was declared previous at ispass-2009-LIB.1.sm_30.ptx:31 skipping new declaration
GPGPU-Sim PTX: Warning %f8 was declared previous at ispass-2009-LIB.1.sm_30.ptx:31 skipping new declaration
GPGPU-Sim PTX: Warning %f9 was declared previous at ispass-2009-LIB.1.sm_30.ptx:31 skipping new declaration
GPGPU-Sim PTX: Warning %f10 was declared previous at ispass-2009-LIB.1.sm_30.ptx:31 skipping new declaration
GPGPU-Sim PTX: Warning %f11 was declared previous at ispass-2009-LIB.1.sm_30.ptx:31 skipping new declaration
GPGPU-Sim PTX: Warning %f12 was declared previous at ispass-2009-LIB.1.sm_30.ptx:31 skipping new declaration
GPGPU-Sim PTX: Warning %f13 was declared previous at ispass-2009-LIB.1.sm_30.ptx:31 skipping new declaration
GPGPU-Sim PTX: Warning %f14 was declared previous at ispass-2009-LIB.1.sm_30.ptx:31 skipping new declaration
GPGPU-Sim PTX: Warning %f15 was declared previous at ispass-2009-LIB.1.sm_30.ptx:31 skipping new declaration
GPGPU-Sim PTX: Warning %f16 was declared previous at ispass-2009-LIB.1.sm_30.ptx:31 skipping new declaration
GPGPU-Sim PTX: Warning %f17 was declared previous at ispass-2009-LIB.1.sm_30.ptx:31 skipping new declaration
GPGPU-Sim PTX: Warning %f18 was declared previous at ispass-2009-LIB.1.sm_30.ptx:31 skipping new declaration
GPGPU-Sim PTX: Warning %f19 was declared previous at ispass-2009-LIB.1.sm_30.ptx:31 skipping new declaration
GPGPU-Sim PTX: Warning %f20 was declared previous at ispass-2009-LIB.1.sm_30.ptx:31 skipping new declaration
GPGPU-Sim PTX: Warning %f21 was declared previous at ispass-2009-LIB.1.sm_30.ptx:31 skipping new declaration
GPGPU-Sim PTX: Warning %f22 was declared previous at ispass-2009-LIB.1.sm_30.ptx:31 skipping new declaration
GPGPU-Sim PTX: Warning %f23 was declared previous at ispass-2009-LIB.1.sm_30.ptx:31 skipping new declaration
GPGPU-Sim PTX: Warning %f24 was declared previous at ispass-2009-LIB.1.sm_30.ptx:31 skipping new declaration
GPGPU-Sim PTX: Warning %f25 was declared previous at ispass-2009-LIB.1.sm_30.ptx:31 skipping new declaration
GPGPU-Sim PTX: Warning %f26 was declared previous at ispass-2009-LIB.1.sm_30.ptx:31 skipping new declaration
GPGPU-Sim PTX: Warning %f27 was declared previous at ispass-2009-LIB.1.sm_30.ptx:31 skipping new declaration
GPGPU-Sim PTX: Warning %f28 was declared previous at ispass-2009-LIB.1.sm_30.ptx:31 skipping new declaration
GPGPU-Sim PTX: Warning %f29 was declared previous at ispass-2009-LIB.1.sm_30.ptx:31 skipping new declaration
GPGPU-Sim PTX: Warning %f30 was declared previous at ispass-2009-LIB.1.sm_30.ptx:31 skipping new declaration
GPGPU-Sim PTX: Warning %f31 was declared previous at ispass-2009-LIB.1.sm_30.ptx:31 skipping new declaration
GPGPU-Sim PTX: Warning %f32 was declared previous at ispass-2009-LIB.1.sm_30.ptx:31 skipping new declaration
GPGPU-Sim PTX: Warning %f33 was declared previous at ispass-2009-LIB.1.sm_30.ptx:31 skipping new declaration
GPGPU-Sim PTX: Warning %f34 was declared previous at ispass-2009-LIB.1.sm_30.ptx:31 skipping new declaration
GPGPU-Sim PTX: Warning %f35 was declared previous at ispass-2009-LIB.1.sm_30.ptx:31 skipping new declaration
GPGPU-Sim PTX: Warning %f36 was declared previous at ispass-2009-LIB.1.sm_30.ptx:31 skipping new declaration
GPGPU-Sim PTX: Warning %f37 was declared previous at ispass-2009-LIB.1.sm_30.ptx:31 skipping new declaration
GPGPU-Sim PTX: Warning %f38 was declared previous at ispass-2009-LIB.1.sm_30.ptx:31 skipping new declaration
GPGPU-Sim PTX: Warning %f39 was declared previous at ispass-2009-LIB.1.sm_30.ptx:31 skipping new declaration
GPGPU-Sim PTX: Warning %f40 was declared previous at ispass-2009-LIB.1.sm_30.ptx:31 skipping new declaration
GPGPU-Sim PTX: Warning %f41 was declared previous at ispass-2009-LIB.1.sm_30.ptx:31 skipping new declaration
GPGPU-Sim PTX: Warning %f42 was declared previous at ispass-2009-LIB.1.sm_30.ptx:31 skipping new declaration
GPGPU-Sim PTX: Warning %f43 was declared previous at ispass-2009-LIB.1.sm_30.ptx:31 skipping new declaration
GPGPU-Sim PTX: Warning %f44 was declared previous at ispass-2009-LIB.1.sm_30.ptx:31 skipping new declaration
GPGPU-Sim PTX: Warning %f45 was declared previous at ispass-2009-LIB.1.sm_30.ptx:31 skipping new declaration
GPGPU-Sim PTX: Warning %f46 was declared previous at ispass-2009-LIB.1.sm_30.ptx:31 skipping new declaration
GPGPU-Sim PTX: Warning %f47 was declared previous at ispass-2009-LIB.1.sm_30.ptx:31 skipping new declaration
GPGPU-Sim PTX: Warning %f48 was declared previous at ispass-2009-LIB.1.sm_30.ptx:31 skipping new declaration
GPGPU-Sim PTX: Warning %f49 was declared previous at ispass-2009-LIB.1.sm_30.ptx:31 skipping new declaration
GPGPU-Sim PTX: Warning %f50 was declared previous at ispass-2009-LIB.1.sm_30.ptx:31 skipping new declaration
GPGPU-Sim PTX: Warning %f51 was declared previous at ispass-2009-LIB.1.sm_30.ptx:31 skipping new declaration
GPGPU-Sim PTX: Warning %f52 was declared previous at ispass-2009-LIB.1.sm_30.ptx:31 skipping new declaration
GPGPU-Sim PTX: Warning %f53 was declared previous at ispass-2009-LIB.1.sm_30.ptx:31 skipping new declaration
GPGPU-Sim PTX: Warning %f54 was declared previous at ispass-2009-LIB.1.sm_30.ptx:31 skipping new declaration
GPGPU-Sim PTX: Warning %f55 was declared previous at ispass-2009-LIB.1.sm_30.ptx:31 skipping new declaration
GPGPU-Sim PTX: Warning %f56 was declared previous at ispass-2009-LIB.1.sm_30.ptx:31 skipping new declaration
GPGPU-Sim PTX: Warning %f57 was declared previous at ispass-2009-LIB.1.sm_30.ptx:31 skipping new declaration
GPGPU-Sim PTX: Warning %f58 was declared previous at ispass-2009-LIB.1.sm_30.ptx:31 skipping new declaration
GPGPU-Sim PTX: Warning %f59 was declared previous at ispass-2009-LIB.1.sm_30.ptx:31 skipping new declaration
GPGPU-Sim PTX: Warning %f60 was declared previous at ispass-2009-LIB.1.sm_30.ptx:31 skipping new declaration
GPGPU-Sim PTX: Warning %f61 was declared previous at ispass-2009-LIB.1.sm_30.ptx:31 skipping new declaration
GPGPU-Sim PTX: Warning %f62 was declared previous at ispass-2009-LIB.1.sm_30.ptx:31 skipping new declaration
GPGPU-Sim PTX: Warning %f63 was declared previous at ispass-2009-LIB.1.sm_30.ptx:31 skipping new declaration
GPGPU-Sim PTX: Warning %f64 was declared previous at ispass-2009-LIB.1.sm_30.ptx:31 skipping new declaration
GPGPU-Sim PTX: Warning %f65 was declared previous at ispass-2009-LIB.1.sm_30.ptx:31 skipping new declaration
GPGPU-Sim PTX: Warning %f66 was declared previous at ispass-2009-LIB.1.sm_30.ptx:31 skipping new declaration
GPGPU-Sim PTX: Warning %f67 was declared previous at ispass-2009-LIB.1.sm_30.ptx:31 skipping new declaration
GPGPU-Sim PTX: Warning %f68 was declared previous at ispass-2009-LIB.1.sm_30.ptx:31 skipping new declaration
GPGPU-Sim PTX: Warning %f69 was declared previous at ispass-2009-LIB.1.sm_30.ptx:31 skipping new declaration
GPGPU-Sim PTX: Warning %f70 was declared previous at ispass-2009-LIB.1.sm_30.ptx:31 skipping new declaration
GPGPU-Sim PTX: Warning %f71 was declared previous at ispass-2009-LIB.1.sm_30.ptx:31 skipping new declaration
GPGPU-Sim PTX: Warning %f72 was declared previous at ispass-2009-LIB.1.sm_30.ptx:31 skipping new declaration
GPGPU-Sim PTX: Warning %f73 was declared previous at ispass-2009-LIB.1.sm_30.ptx:31 skipping new declaration
GPGPU-Sim PTX: Warning %f74 was declared previous at ispass-2009-LIB.1.sm_30.ptx:31 skipping new declaration
GPGPU-Sim PTX: Warning %f75 was declared previous at ispass-2009-LIB.1.sm_30.ptx:31 skipping new declaration
GPGPU-Sim PTX: Warning %f76 was declared previous at ispass-2009-LIB.1.sm_30.ptx:31 skipping new declaration
GPGPU-Sim PTX: Warning %f77 was declared previous at ispass-2009-LIB.1.sm_30.ptx:31 skipping new declaration
GPGPU-Sim PTX: Warning %f78 was declared previous at ispass-2009-LIB.1.sm_30.ptx:31 skipping new declaration
GPGPU-Sim PTX: Warning %f79 was declared previous at ispass-2009-LIB.1.sm_30.ptx:31 skipping new declaration
GPGPU-Sim PTX: Warning %f80 was declared previous at ispass-2009-LIB.1.sm_30.ptx:31 skipping new declaration
GPGPU-Sim PTX: Warning %f81 was declared previous at ispass-2009-LIB.1.sm_30.ptx:31 skipping new declaration
GPGPU-Sim PTX: Warning %f82 was declared previous at ispass-2009-LIB.1.sm_30.ptx:31 skipping new declaration
GPGPU-Sim PTX: Warning %f83 was declared previous at ispass-2009-LIB.1.sm_30.ptx:31 skipping new declaration
GPGPU-Sim PTX: Warning %f84 was declared previous at ispass-2009-LIB.1.sm_30.ptx:31 skipping new declaration
GPGPU-Sim PTX: Warning %f85 was declared previous at ispass-2009-LIB.1.sm_30.ptx:31 skipping new declaration
GPGPU-Sim PTX: Warning %f86 was declared previous at ispass-2009-LIB.1.sm_30.ptx:31 skipping new declaration
GPGPU-Sim PTX: Warning %f87 was declared previous at ispass-2009-LIB.1.sm_30.ptx:31 skipping new declaration
GPGPU-Sim PTX: Warning %f88 was declared previous at ispass-2009-LIB.1.sm_30.ptx:31 skipping new declaration
GPGPU-Sim PTX: Warning %f89 was declared previous at ispass-2009-LIB.1.sm_30.ptx:31 skipping new declaration
GPGPU-Sim PTX: Warning %f90 was declared previous at ispass-2009-LIB.1.sm_30.ptx:31 skipping new declaration
GPGPU-Sim PTX: Warning %f91 was declared previous at ispass-2009-LIB.1.sm_30.ptx:31 skipping new declaration
GPGPU-Sim PTX: Warning %f92 was declared previous at ispass-2009-LIB.1.sm_30.ptx:31 skipping new declaration
GPGPU-Sim PTX: Warning %f93 was declared previous at ispass-2009-LIB.1.sm_30.ptx:31 skipping new declaration
GPGPU-Sim PTX: Warning %f94 was declared previous at ispass-2009-LIB.1.sm_30.ptx:31 skipping new declaration
GPGPU-Sim PTX: Warning %f95 was declared previous at ispass-2009-LIB.1.sm_30.ptx:31 skipping new declaration
GPGPU-Sim PTX: Warning %f96 was declared previous at ispass-2009-LIB.1.sm_30.ptx:31 skipping new declaration
GPGPU-Sim PTX: Warning %f97 was declared previous at ispass-2009-LIB.1.sm_30.ptx:31 skipping new declaration
GPGPU-Sim PTX: Warning %f98 was declared previous at ispass-2009-LIB.1.sm_30.ptx:31 skipping new declaration
GPGPU-Sim PTX: Warning %f99 was declared previous at ispass-2009-LIB.1.sm_30.ptx:31 skipping new declaration
GPGPU-Sim PTX: Warning %f100 was declared previous at ispass-2009-LIB.1.sm_30.ptx:31 skipping new declaration
GPGPU-Sim PTX: Warning %f101 was declared previous at ispass-2009-LIB.1.sm_30.ptx:31 skipping new declaration
GPGPU-Sim PTX: Warning %f102 was declared previous at ispass-2009-LIB.1.sm_30.ptx:31 skipping new declaration
GPGPU-Sim PTX: Warning %f103 was declared previous at ispass-2009-LIB.1.sm_30.ptx:31 skipping new declaration
GPGPU-Sim PTX: Warning %f104 was declared previous at ispass-2009-LIB.1.sm_30.ptx:31 skipping new declaration
GPGPU-Sim PTX: Warning %f105 was declared previous at ispass-2009-LIB.1.sm_30.ptx:31 skipping new declaration
GPGPU-Sim PTX: Warning %f106 was declared previous at ispass-2009-LIB.1.sm_30.ptx:31 skipping new declaration
GPGPU-Sim PTX: Warning %f107 was declared previous at ispass-2009-LIB.1.sm_30.ptx:31 skipping new declaration
GPGPU-Sim PTX: Warning %f108 was declared previous at ispass-2009-LIB.1.sm_30.ptx:31 skipping new declaration
GPGPU-Sim PTX: Warning %f109 was declared previous at ispass-2009-LIB.1.sm_30.ptx:31 skipping new declaration
GPGPU-Sim PTX: Warning %f110 was declared previous at ispass-2009-LIB.1.sm_30.ptx:31 skipping new declaration
GPGPU-Sim PTX: Warning %f111 was declared previous at ispass-2009-LIB.1.sm_30.ptx:31 skipping new declaration
GPGPU-Sim PTX: Warning %f112 was declared previous at ispass-2009-LIB.1.sm_30.ptx:31 skipping new declaration
GPGPU-Sim PTX: Warning %f113 was declared previous at ispass-2009-LIB.1.sm_30.ptx:31 skipping new declaration
GPGPU-Sim PTX: Warning %f114 was declared previous at ispass-2009-LIB.1.sm_30.ptx:31 skipping new declaration
GPGPU-Sim PTX: Warning %f115 was declared previous at ispass-2009-LIB.1.sm_30.ptx:31 skipping new declaration
GPGPU-Sim PTX: Warning %f116 was declared previous at ispass-2009-LIB.1.sm_30.ptx:31 skipping new declaration
GPGPU-Sim PTX: Warning %f117 was declared previous at ispass-2009-LIB.1.sm_30.ptx:31 skipping new declaration
GPGPU-Sim PTX: Warning %f118 was declared previous at ispass-2009-LIB.1.sm_30.ptx:31 skipping new declaration
GPGPU-Sim PTX: Warning %f119 was declared previous at ispass-2009-LIB.1.sm_30.ptx:31 skipping new declaration
GPGPU-Sim PTX: Warning %f120 was declared previous at ispass-2009-LIB.1.sm_30.ptx:31 skipping new declaration
GPGPU-Sim PTX: Warning %f121 was declared previous at ispass-2009-LIB.1.sm_30.ptx:31 skipping new declaration
GPGPU-Sim PTX: Warning %f122 was declared previous at ispass-2009-LIB.1.sm_30.ptx:31 skipping new declaration
GPGPU-Sim PTX: Warning %f123 was declared previous at ispass-2009-LIB.1.sm_30.ptx:31 skipping new declaration
GPGPU-Sim PTX: Warning %f124 was declared previous at ispass-2009-LIB.1.sm_30.ptx:31 skipping new declaration
GPGPU-Sim PTX: Warning %f125 was declared previous at ispass-2009-LIB.1.sm_30.ptx:31 skipping new declaration
GPGPU-Sim PTX: Warning %f126 was declared previous at ispass-2009-LIB.1.sm_30.ptx:31 skipping new declaration
GPGPU-Sim PTX: Warning %f127 was declared previous at ispass-2009-LIB.1.sm_30.ptx:31 skipping new declaration
GPGPU-Sim PTX: Warning %f128 was declared previous at ispass-2009-LIB.1.sm_30.ptx:31 skipping new declaration
GPGPU-Sim PTX: Warning %f129 was declared previous at ispass-2009-LIB.1.sm_30.ptx:31 skipping new declaration
GPGPU-Sim PTX: Warning %f130 was declared previous at ispass-2009-LIB.1.sm_30.ptx:31 skipping new declaration
GPGPU-Sim PTX: Warning %f131 was declared previous at ispass-2009-LIB.1.sm_30.ptx:31 skipping new declaration
GPGPU-Sim PTX: Warning %f132 was declared previous at ispass-2009-LIB.1.sm_30.ptx:31 skipping new declaration
GPGPU-Sim PTX: Warning %f133 was declared previous at ispass-2009-LIB.1.sm_30.ptx:31 skipping new declaration
GPGPU-Sim PTX: Warning %f134 was declared previous at ispass-2009-LIB.1.sm_30.ptx:31 skipping new declaration
GPGPU-Sim PTX: Warning %f135 was declared previous at ispass-2009-LIB.1.sm_30.ptx:31 skipping new declaration
GPGPU-Sim PTX: Warning %f136 was declared previous at ispass-2009-LIB.1.sm_30.ptx:31 skipping new declaration
GPGPU-Sim PTX: Warning %f137 was declared previous at ispass-2009-LIB.1.sm_30.ptx:31 skipping new declaration
GPGPU-Sim PTX: Warning %f138 was declared previous at ispass-2009-LIB.1.sm_30.ptx:31 skipping new declaration
GPGPU-Sim PTX: Warning %f139 was declared previous at ispass-2009-LIB.1.sm_30.ptx:31 skipping new declaration
GPGPU-Sim PTX: Warning %f140 was declared previous at ispass-2009-LIB.1.sm_30.ptx:31 skipping new declaration
GPGPU-Sim PTX: Warning %f141 was declared previous at ispass-2009-LIB.1.sm_30.ptx:31 skipping new declaration
GPGPU-Sim PTX: Warning %f142 was declared previous at ispass-2009-LIB.1.sm_30.ptx:31 skipping new declaration
GPGPU-Sim PTX: Warning %f143 was declared previous at ispass-2009-LIB.1.sm_30.ptx:31 skipping new declaration
GPGPU-Sim PTX: Warning %f144 was declared previous at ispass-2009-LIB.1.sm_30.ptx:31 skipping new declaration
GPGPU-Sim PTX: Warning %f145 was declared previous at ispass-2009-LIB.1.sm_30.ptx:31 skipping new declaration
GPGPU-Sim PTX: Warning %f146 was declared previous at ispass-2009-LIB.1.sm_30.ptx:31 skipping new declaration
GPGPU-Sim PTX: Warning %f147 was declared previous at ispass-2009-LIB.1.sm_30.ptx:31 skipping new declaration
GPGPU-Sim PTX: Warning %f148 was declared previous at ispass-2009-LIB.1.sm_30.ptx:31 skipping new declaration
GPGPU-Sim PTX: Warning %f149 was declared previous at ispass-2009-LIB.1.sm_30.ptx:31 skipping new declaration
GPGPU-Sim PTX: Warning %f150 was declared previous at ispass-2009-LIB.1.sm_30.ptx:31 skipping new declaration
GPGPU-Sim PTX: Warning %f151 was declared previous at ispass-2009-LIB.1.sm_30.ptx:31 skipping new declaration
GPGPU-Sim PTX: Warning %f152 was declared previous at ispass-2009-LIB.1.sm_30.ptx:31 skipping new declaration
GPGPU-Sim PTX: Warning %f153 was declared previous at ispass-2009-LIB.1.sm_30.ptx:31 skipping new declaration
GPGPU-Sim PTX: Warning %f154 was declared previous at ispass-2009-LIB.1.sm_30.ptx:31 skipping new declaration
GPGPU-Sim PTX: Warning %f155 was declared previous at ispass-2009-LIB.1.sm_30.ptx:31 skipping new declaration
GPGPU-Sim PTX: Warning %f156 was declared previous at ispass-2009-LIB.1.sm_30.ptx:31 skipping new declaration
GPGPU-Sim PTX: Warning %f157 was declared previous at ispass-2009-LIB.1.sm_30.ptx:31 skipping new declaration
GPGPU-Sim PTX: Warning %f158 was declared previous at ispass-2009-LIB.1.sm_30.ptx:31 skipping new declaration
GPGPU-Sim PTX: Warning %f159 was declared previous at ispass-2009-LIB.1.sm_30.ptx:31 skipping new declaration
GPGPU-Sim PTX: Warning %f160 was declared previous at ispass-2009-LIB.1.sm_30.ptx:31 skipping new declaration
GPGPU-Sim PTX: Warning %f161 was declared previous at ispass-2009-LIB.1.sm_30.ptx:31 skipping new declaration
GPGPU-Sim PTX: Warning %f162 was declared previous at ispass-2009-LIB.1.sm_30.ptx:31 skipping new declaration
GPGPU-Sim PTX: Warning %f163 was declared previous at ispass-2009-LIB.1.sm_30.ptx:31 skipping new declaration
GPGPU-Sim PTX: Warning %f164 was declared previous at ispass-2009-LIB.1.sm_30.ptx:31 skipping new declaration
GPGPU-Sim PTX: Warning %f165 was declared previous at ispass-2009-LIB.1.sm_30.ptx:31 skipping new declaration
GPGPU-Sim PTX: Warning %f166 was declared previous at ispass-2009-LIB.1.sm_30.ptx:31 skipping new declaration
GPGPU-Sim PTX: Warning %f167 was declared previous at ispass-2009-LIB.1.sm_30.ptx:31 skipping new declaration
GPGPU-Sim PTX: Warning %f168 was declared previous at ispass-2009-LIB.1.sm_30.ptx:31 skipping new declaration
GPGPU-Sim PTX: Warning %f169 was declared previous at ispass-2009-LIB.1.sm_30.ptx:31 skipping new declaration
GPGPU-Sim PTX: Warning %f170 was declared previous at ispass-2009-LIB.1.sm_30.ptx:31 skipping new declaration
GPGPU-Sim PTX: Warning %f171 was declared previous at ispass-2009-LIB.1.sm_30.ptx:31 skipping new declaration
GPGPU-Sim PTX: Warning %f172 was declared previous at ispass-2009-LIB.1.sm_30.ptx:31 skipping new declaration
GPGPU-Sim PTX: Warning %f173 was declared previous at ispass-2009-LIB.1.sm_30.ptx:31 skipping new declaration
GPGPU-Sim PTX: Warning %f174 was declared previous at ispass-2009-LIB.1.sm_30.ptx:31 skipping new declaration
GPGPU-Sim PTX: Warning %f175 was declared previous at ispass-2009-LIB.1.sm_30.ptx:31 skipping new declaration
GPGPU-Sim PTX: Warning %f176 was declared previous at ispass-2009-LIB.1.sm_30.ptx:31 skipping new declaration
GPGPU-Sim PTX: Warning %f177 was declared previous at ispass-2009-LIB.1.sm_30.ptx:31 skipping new declaration
GPGPU-Sim PTX: Warning %f178 was declared previous at ispass-2009-LIB.1.sm_30.ptx:31 skipping new declaration
GPGPU-Sim PTX: Warning %f179 was declared previous at ispass-2009-LIB.1.sm_30.ptx:31 skipping new declaration
GPGPU-Sim PTX: Warning %f180 was declared previous at ispass-2009-LIB.1.sm_30.ptx:31 skipping new declaration
GPGPU-Sim PTX: Warning %f181 was declared previous at ispass-2009-LIB.1.sm_30.ptx:31 skipping new declaration
GPGPU-Sim PTX: Warning %f182 was declared previous at ispass-2009-LIB.1.sm_30.ptx:31 skipping new declaration
GPGPU-Sim PTX: Warning %f183 was declared previous at ispass-2009-LIB.1.sm_30.ptx:31 skipping new declaration
GPGPU-Sim PTX: Warning %f184 was declared previous at ispass-2009-LIB.1.sm_30.ptx:31 skipping new declaration
GPGPU-Sim PTX: Warning %f185 was declared previous at ispass-2009-LIB.1.sm_30.ptx:31 skipping new declaration
GPGPU-Sim PTX: Warning %f186 was declared previous at ispass-2009-LIB.1.sm_30.ptx:31 skipping new declaration
GPGPU-Sim PTX: Warning %f187 was declared previous at ispass-2009-LIB.1.sm_30.ptx:31 skipping new declaration
GPGPU-Sim PTX: Warning %f188 was declared previous at ispass-2009-LIB.1.sm_30.ptx:31 skipping new declaration
GPGPU-Sim PTX: Warning %f189 was declared previous at ispass-2009-LIB.1.sm_30.ptx:31 skipping new declaration
GPGPU-Sim PTX: Warning %f190 was declared previous at ispass-2009-LIB.1.sm_30.ptx:31 skipping new declaration
GPGPU-Sim PTX: Warning %f191 was declared previous at ispass-2009-LIB.1.sm_30.ptx:31 skipping new declaration
GPGPU-Sim PTX: Warning %f192 was declared previous at ispass-2009-LIB.1.sm_30.ptx:31 skipping new declaration
GPGPU-Sim PTX: Warning %f193 was declared previous at ispass-2009-LIB.1.sm_30.ptx:31 skipping new declaration
GPGPU-Sim PTX: Warning %f194 was declared previous at ispass-2009-LIB.1.sm_30.ptx:31 skipping new declaration
GPGPU-Sim PTX: Warning %f195 was declared previous at ispass-2009-LIB.1.sm_30.ptx:31 skipping new declaration
GPGPU-Sim PTX: Warning %f196 was declared previous at ispass-2009-LIB.1.sm_30.ptx:31 skipping new declaration
GPGPU-Sim PTX: Warning %f197 was declared previous at ispass-2009-LIB.1.sm_30.ptx:31 skipping new declaration
GPGPU-Sim PTX: Warning %f198 was declared previous at ispass-2009-LIB.1.sm_30.ptx:31 skipping new declaration
GPGPU-Sim PTX: Warning %f199 was declared previous at ispass-2009-LIB.1.sm_30.ptx:31 skipping new declaration
GPGPU-Sim PTX: Warning %f200 was declared previous at ispass-2009-LIB.1.sm_30.ptx:31 skipping new declaration
GPGPU-Sim PTX: Warning %f201 was declared previous at ispass-2009-LIB.1.sm_30.ptx:31 skipping new declaration
GPGPU-Sim PTX: Warning %f202 was declared previous at ispass-2009-LIB.1.sm_30.ptx:31 skipping new declaration
GPGPU-Sim PTX: Warning %f203 was declared previous at ispass-2009-LIB.1.sm_30.ptx:31 skipping new declaration
GPGPU-Sim PTX: Warning %f204 was declared previous at ispass-2009-LIB.1.sm_30.ptx:31 skipping new declaration
GPGPU-Sim PTX: Warning %f205 was declared previous at ispass-2009-LIB.1.sm_30.ptx:31 skipping new declaration
GPGPU-Sim PTX: Warning %f206 was declared previous at ispass-2009-LIB.1.sm_30.ptx:31 skipping new declaration
GPGPU-Sim PTX: Warning %f207 was declared previous at ispass-2009-LIB.1.sm_30.ptx:31 skipping new declaration
GPGPU-Sim PTX: Warning %f208 was declared previous at ispass-2009-LIB.1.sm_30.ptx:31 skipping new declaration
GPGPU-Sim PTX: Warning %f209 was declared previous at ispass-2009-LIB.1.sm_30.ptx:31 skipping new declaration
GPGPU-Sim PTX: Warning %f210 was declared previous at ispass-2009-LIB.1.sm_30.ptx:31 skipping new declaration
GPGPU-Sim PTX: Warning %f211 was declared previous at ispass-2009-LIB.1.sm_30.ptx:31 skipping new declaration
GPGPU-Sim PTX: Warning %f212 was declared previous at ispass-2009-LIB.1.sm_30.ptx:31 skipping new declaration
GPGPU-Sim PTX: Warning %f213 was declared previous at ispass-2009-LIB.1.sm_30.ptx:31 skipping new declaration
GPGPU-Sim PTX: Warning %f214 was declared previous at ispass-2009-LIB.1.sm_30.ptx:31 skipping new declaration
GPGPU-Sim PTX: Warning %f215 was declared previous at ispass-2009-LIB.1.sm_30.ptx:31 skipping new declaration
GPGPU-Sim PTX: Warning %f216 was declared previous at ispass-2009-LIB.1.sm_30.ptx:31 skipping new declaration
GPGPU-Sim PTX: Warning %f217 was declared previous at ispass-2009-LIB.1.sm_30.ptx:31 skipping new declaration
GPGPU-Sim PTX: Warning %f218 was declared previous at ispass-2009-LIB.1.sm_30.ptx:31 skipping new declaration
GPGPU-Sim PTX: Warning %f219 was declared previous at ispass-2009-LIB.1.sm_30.ptx:31 skipping new declaration
GPGPU-Sim PTX: Warning %f220 was declared previous at ispass-2009-LIB.1.sm_30.ptx:31 skipping new declaration
GPGPU-Sim PTX: Warning %f221 was declared previous at ispass-2009-LIB.1.sm_30.ptx:31 skipping new declaration
GPGPU-Sim PTX: Warning %f222 was declared previous at ispass-2009-LIB.1.sm_30.ptx:31 skipping new declaration
GPGPU-Sim PTX: Warning %f223 was declared previous at ispass-2009-LIB.1.sm_30.ptx:31 skipping new declaration
GPGPU-Sim PTX: Warning %f224 was declared previous at ispass-2009-LIB.1.sm_30.ptx:31 skipping new declaration
GPGPU-Sim PTX: Warning %f225 was declared previous at ispass-2009-LIB.1.sm_30.ptx:31 skipping new declaration
GPGPU-Sim PTX: Warning %f226 was declared previous at ispass-2009-LIB.1.sm_30.ptx:31 skipping new declaration
GPGPU-Sim PTX: Warning %f227 was declared previous at ispass-2009-LIB.1.sm_30.ptx:31 skipping new declaration
GPGPU-Sim PTX: Warning %f228 was declared previous at ispass-2009-LIB.1.sm_30.ptx:31 skipping new declaration
GPGPU-Sim PTX: Warning %f229 was declared previous at ispass-2009-LIB.1.sm_30.ptx:31 skipping new declaration
GPGPU-Sim PTX: Warning %f230 was declared previous at ispass-2009-LIB.1.sm_30.ptx:31 skipping new declaration
GPGPU-Sim PTX: Warning %f231 was declared previous at ispass-2009-LIB.1.sm_30.ptx:31 skipping new declaration
GPGPU-Sim PTX: Warning %f232 was declared previous at ispass-2009-LIB.1.sm_30.ptx:31 skipping new declaration
GPGPU-Sim PTX: Warning %f233 was declared previous at ispass-2009-LIB.1.sm_30.ptx:31 skipping new declaration
GPGPU-Sim PTX: Warning %f234 was declared previous at ispass-2009-LIB.1.sm_30.ptx:31 skipping new declaration
GPGPU-Sim PTX: Warning %f235 was declared previous at ispass-2009-LIB.1.sm_30.ptx:31 skipping new declaration
GPGPU-Sim PTX: Warning %f236 was declared previous at ispass-2009-LIB.1.sm_30.ptx:31 skipping new declaration
GPGPU-Sim PTX: Warning %f237 was declared previous at ispass-2009-LIB.1.sm_30.ptx:31 skipping new declaration
GPGPU-Sim PTX: Warning %f238 was declared previous at ispass-2009-LIB.1.sm_30.ptx:31 skipping new declaration
GPGPU-Sim PTX: Warning %f239 was declared previous at ispass-2009-LIB.1.sm_30.ptx:31 skipping new declaration
GPGPU-Sim PTX: Warning %f240 was declared previous at ispass-2009-LIB.1.sm_30.ptx:31 skipping new declaration
GPGPU-Sim PTX: Warning %f241 was declared previous at ispass-2009-LIB.1.sm_30.ptx:31 skipping new declaration
GPGPU-Sim PTX: Warning %f242 was declared previous at ispass-2009-LIB.1.sm_30.ptx:31 skipping new declaration
GPGPU-Sim PTX: Warning %f243 was declared previous at ispass-2009-LIB.1.sm_30.ptx:31 skipping new declaration
GPGPU-Sim PTX: Warning %f244 was declared previous at ispass-2009-LIB.1.sm_30.ptx:31 skipping new declaration
GPGPU-Sim PTX: Warning %f245 was declared previous at ispass-2009-LIB.1.sm_30.ptx:31 skipping new declaration
GPGPU-Sim PTX: Warning %f246 was declared previous at ispass-2009-LIB.1.sm_30.ptx:31 skipping new declaration
GPGPU-Sim PTX: Warning %f247 was declared previous at ispass-2009-LIB.1.sm_30.ptx:31 skipping new declaration
GPGPU-Sim PTX: Warning %f248 was declared previous at ispass-2009-LIB.1.sm_30.ptx:31 skipping new declaration
GPGPU-Sim PTX: Warning %f249 was declared previous at ispass-2009-LIB.1.sm_30.ptx:31 skipping new declaration
GPGPU-Sim PTX: Warning %f250 was declared previous at ispass-2009-LIB.1.sm_30.ptx:31 skipping new declaration
GPGPU-Sim PTX: Warning %f251 was declared previous at ispass-2009-LIB.1.sm_30.ptx:31 skipping new declaration
GPGPU-Sim PTX: Warning %f252 was declared previous at ispass-2009-LIB.1.sm_30.ptx:31 skipping new declaration
GPGPU-Sim PTX: Warning %f253 was declared previous at ispass-2009-LIB.1.sm_30.ptx:31 skipping new declaration
GPGPU-Sim PTX: Warning %f254 was declared previous at ispass-2009-LIB.1.sm_30.ptx:31 skipping new declaration
GPGPU-Sim PTX: Warning %f255 was declared previous at ispass-2009-LIB.1.sm_30.ptx:31 skipping new declaration
GPGPU-Sim PTX: Warning %f256 was declared previous at ispass-2009-LIB.1.sm_30.ptx:31 skipping new declaration
GPGPU-Sim PTX: Warning %f257 was declared previous at ispass-2009-LIB.1.sm_30.ptx:31 skipping new declaration
GPGPU-Sim PTX: Warning %f258 was declared previous at ispass-2009-LIB.1.sm_30.ptx:31 skipping new declaration
GPGPU-Sim PTX: Warning %f259 was declared previous at ispass-2009-LIB.1.sm_30.ptx:31 skipping new declaration
GPGPU-Sim PTX: Warning %f260 was declared previous at ispass-2009-LIB.1.sm_30.ptx:31 skipping new declaration
GPGPU-Sim PTX: Warning %f261 was declared previous at ispass-2009-LIB.1.sm_30.ptx:31 skipping new declaration
GPGPU-Sim PTX: Warning %f262 was declared previous at ispass-2009-LIB.1.sm_30.ptx:31 skipping new declaration
GPGPU-Sim PTX: Warning %f263 was declared previous at ispass-2009-LIB.1.sm_30.ptx:31 skipping new declaration
GPGPU-Sim PTX: Warning %f264 was declared previous at ispass-2009-LIB.1.sm_30.ptx:31 skipping new declaration
GPGPU-Sim PTX: Warning %f265 was declared previous at ispass-2009-LIB.1.sm_30.ptx:31 skipping new declaration
GPGPU-Sim PTX: Warning %f266 was declared previous at ispass-2009-LIB.1.sm_30.ptx:31 skipping new declaration
GPGPU-Sim PTX: Warning %f267 was declared previous at ispass-2009-LIB.1.sm_30.ptx:31 skipping new declaration
GPGPU-Sim PTX: Warning %f268 was declared previous at ispass-2009-LIB.1.sm_30.ptx:31 skipping new declaration
GPGPU-Sim PTX: Warning %f269 was declared previous at ispass-2009-LIB.1.sm_30.ptx:31 skipping new declaration
GPGPU-Sim PTX: Warning %f270 was declared previous at ispass-2009-LIB.1.sm_30.ptx:31 skipping new declaration
GPGPU-Sim PTX: Warning %f271 was declared previous at ispass-2009-LIB.1.sm_30.ptx:31 skipping new declaration
GPGPU-Sim PTX: Warning %f272 was declared previous at ispass-2009-LIB.1.sm_30.ptx:31 skipping new declaration
GPGPU-Sim PTX: Warning %f273 was declared previous at ispass-2009-LIB.1.sm_30.ptx:31 skipping new declaration
GPGPU-Sim PTX: Warning %f274 was declared previous at ispass-2009-LIB.1.sm_30.ptx:31 skipping new declaration
GPGPU-Sim PTX: Warning %f275 was declared previous at ispass-2009-LIB.1.sm_30.ptx:31 skipping new declaration
GPGPU-Sim PTX: Warning %f276 was declared previous at ispass-2009-LIB.1.sm_30.ptx:31 skipping new declaration
GPGPU-Sim PTX: Warning %f277 was declared previous at ispass-2009-LIB.1.sm_30.ptx:31 skipping new declaration
GPGPU-Sim PTX: Warning %f278 was declared previous at ispass-2009-LIB.1.sm_30.ptx:31 skipping new declaration
GPGPU-Sim PTX: Warning %f279 was declared previous at ispass-2009-LIB.1.sm_30.ptx:31 skipping new declaration
GPGPU-Sim PTX: Warning %f280 was declared previous at ispass-2009-LIB.1.sm_30.ptx:31 skipping new declaration
GPGPU-Sim PTX: Warning %f281 was declared previous at ispass-2009-LIB.1.sm_30.ptx:31 skipping new declaration
GPGPU-Sim PTX: Warning %f282 was declared previous at ispass-2009-LIB.1.sm_30.ptx:31 skipping new declaration
GPGPU-Sim PTX: Warning %f283 was declared previous at ispass-2009-LIB.1.sm_30.ptx:31 skipping new declaration
GPGPU-Sim PTX: Warning %f284 was declared previous at ispass-2009-LIB.1.sm_30.ptx:31 skipping new declaration
GPGPU-Sim PTX: Warning %f285 was declared previous at ispass-2009-LIB.1.sm_30.ptx:31 skipping new declaration
GPGPU-Sim PTX: Warning %f286 was declared previous at ispass-2009-LIB.1.sm_30.ptx:31 skipping new declaration
GPGPU-Sim PTX: Warning %f287 was declared previous at ispass-2009-LIB.1.sm_30.ptx:31 skipping new declaration
GPGPU-Sim PTX: Warning %f288 was declared previous at ispass-2009-LIB.1.sm_30.ptx:31 skipping new declaration
GPGPU-Sim PTX: Warning %f289 was declared previous at ispass-2009-LIB.1.sm_30.ptx:31 skipping new declaration
GPGPU-Sim PTX: Warning %f290 was declared previous at ispass-2009-LIB.1.sm_30.ptx:31 skipping new declaration
GPGPU-Sim PTX: Warning %f291 was declared previous at ispass-2009-LIB.1.sm_30.ptx:31 skipping new declaration
GPGPU-Sim PTX: Warning %f292 was declared previous at ispass-2009-LIB.1.sm_30.ptx:31 skipping new declaration
GPGPU-Sim PTX: Warning %f293 was declared previous at ispass-2009-LIB.1.sm_30.ptx:31 skipping new declaration
GPGPU-Sim PTX: Warning %f294 was declared previous at ispass-2009-LIB.1.sm_30.ptx:31 skipping new declaration
GPGPU-Sim PTX: Warning %f295 was declared previous at ispass-2009-LIB.1.sm_30.ptx:31 skipping new declaration
GPGPU-Sim PTX: Warning %f296 was declared previous at ispass-2009-LIB.1.sm_30.ptx:31 skipping new declaration
GPGPU-Sim PTX: Warning %f297 was declared previous at ispass-2009-LIB.1.sm_30.ptx:31 skipping new declaration
GPGPU-Sim PTX: Warning %f298 was declared previous at ispass-2009-LIB.1.sm_30.ptx:31 skipping new declaration
GPGPU-Sim PTX: Warning %f299 was declared previous at ispass-2009-LIB.1.sm_30.ptx:31 skipping new declaration
GPGPU-Sim PTX: Warning %f300 was declared previous at ispass-2009-LIB.1.sm_30.ptx:31 skipping new declaration
GPGPU-Sim PTX: Warning %f301 was declared previous at ispass-2009-LIB.1.sm_30.ptx:31 skipping new declaration
GPGPU-Sim PTX: Warning %f302 was declared previous at ispass-2009-LIB.1.sm_30.ptx:31 skipping new declaration
GPGPU-Sim PTX: Warning %f303 was declared previous at ispass-2009-LIB.1.sm_30.ptx:31 skipping new declaration
GPGPU-Sim PTX: Warning %f304 was declared previous at ispass-2009-LIB.1.sm_30.ptx:31 skipping new declaration
GPGPU-Sim PTX: Warning %f305 was declared previous at ispass-2009-LIB.1.sm_30.ptx:31 skipping new declaration
GPGPU-Sim PTX: Warning %f306 was declared previous at ispass-2009-LIB.1.sm_30.ptx:31 skipping new declaration
GPGPU-Sim PTX: Warning %f307 was declared previous at ispass-2009-LIB.1.sm_30.ptx:31 skipping new declaration
GPGPU-Sim PTX: Warning %f308 was declared previous at ispass-2009-LIB.1.sm_30.ptx:31 skipping new declaration
GPGPU-Sim PTX: Warning %f309 was declared previous at ispass-2009-LIB.1.sm_30.ptx:31 skipping new declaration
GPGPU-Sim PTX: Warning %f310 was declared previous at ispass-2009-LIB.1.sm_30.ptx:31 skipping new declaration
GPGPU-Sim PTX: Warning %f311 was declared previous at ispass-2009-LIB.1.sm_30.ptx:31 skipping new declaration
GPGPU-Sim PTX: Warning %f312 was declared previous at ispass-2009-LIB.1.sm_30.ptx:31 skipping new declaration
GPGPU-Sim PTX: Warning %f313 was declared previous at ispass-2009-LIB.1.sm_30.ptx:31 skipping new declaration
GPGPU-Sim PTX: Warning %f314 was declared previous at ispass-2009-LIB.1.sm_30.ptx:31 skipping new declaration
GPGPU-Sim PTX: Warning %f315 was declared previous at ispass-2009-LIB.1.sm_30.ptx:31 skipping new declaration
GPGPU-Sim PTX: Warning %f316 was declared previous at ispass-2009-LIB.1.sm_30.ptx:31 skipping new declaration
GPGPU-Sim PTX: Warning %f317 was declared previous at ispass-2009-LIB.1.sm_30.ptx:31 skipping new declaration
GPGPU-Sim PTX: Warning %f318 was declared previous at ispass-2009-LIB.1.sm_30.ptx:31 skipping new declaration
GPGPU-Sim PTX: Warning %f319 was declared previous at ispass-2009-LIB.1.sm_30.ptx:31 skipping new declaration
GPGPU-Sim PTX: Warning %f320 was declared previous at ispass-2009-LIB.1.sm_30.ptx:31 skipping new declaration
GPGPU-Sim PTX: Warning %f321 was declared previous at ispass-2009-LIB.1.sm_30.ptx:31 skipping new declaration
GPGPU-Sim PTX: Warning %f322 was declared previous at ispass-2009-LIB.1.sm_30.ptx:31 skipping new declaration
GPGPU-Sim PTX: Warning %f323 was declared previous at ispass-2009-LIB.1.sm_30.ptx:31 skipping new declaration
GPGPU-Sim PTX: Warning %f324 was declared previous at ispass-2009-LIB.1.sm_30.ptx:31 skipping new declaration
GPGPU-Sim PTX: Warning %f325 was declared previous at ispass-2009-LIB.1.sm_30.ptx:31 skipping new declaration
GPGPU-Sim PTX: Warning %f326 was declared previous at ispass-2009-LIB.1.sm_30.ptx:31 skipping new declaration
GPGPU-Sim PTX: Warning %f327 was declared previous at ispass-2009-LIB.1.sm_30.ptx:31 skipping new declaration
GPGPU-Sim PTX: Warning %f328 was declared previous at ispass-2009-LIB.1.sm_30.ptx:31 skipping new declaration
GPGPU-Sim PTX: Warning %f329 was declared previous at ispass-2009-LIB.1.sm_30.ptx:31 skipping new declaration
GPGPU-Sim PTX: Warning %f330 was declared previous at ispass-2009-LIB.1.sm_30.ptx:31 skipping new declaration
GPGPU-Sim PTX: Warning %f331 was declared previous at ispass-2009-LIB.1.sm_30.ptx:31 skipping new declaration
GPGPU-Sim PTX: Warning %f332 was declared previous at ispass-2009-LIB.1.sm_30.ptx:31 skipping new declaration
GPGPU-Sim PTX: Warning %f333 was declared previous at ispass-2009-LIB.1.sm_30.ptx:31 skipping new declaration
GPGPU-Sim PTX: Warning %f334 was declared previous at ispass-2009-LIB.1.sm_30.ptx:31 skipping new declaration
GPGPU-Sim PTX: Warning %f335 was declared previous at ispass-2009-LIB.1.sm_30.ptx:31 skipping new declaration
GPGPU-Sim PTX: Warning %f336 was declared previous at ispass-2009-LIB.1.sm_30.ptx:31 skipping new declaration
GPGPU-Sim PTX: Warning %f337 was declared previous at ispass-2009-LIB.1.sm_30.ptx:31 skipping new declaration
GPGPU-Sim PTX: Warning %f338 was declared previous at ispass-2009-LIB.1.sm_30.ptx:31 skipping new declaration
GPGPU-Sim PTX: Warning %f339 was declared previous at ispass-2009-LIB.1.sm_30.ptx:31 skipping new declaration
GPGPU-Sim PTX: Warning %f340 was declared previous at ispass-2009-LIB.1.sm_30.ptx:31 skipping new declaration
GPGPU-Sim PTX: Warning %f341 was declared previous at ispass-2009-LIB.1.sm_30.ptx:31 skipping new declaration
GPGPU-Sim PTX: Warning %f342 was declared previous at ispass-2009-LIB.1.sm_30.ptx:31 skipping new declaration
GPGPU-Sim PTX: Warning %f343 was declared previous at ispass-2009-LIB.1.sm_30.ptx:31 skipping new declaration
GPGPU-Sim PTX: Warning %f344 was declared previous at ispass-2009-LIB.1.sm_30.ptx:31 skipping new declaration
GPGPU-Sim PTX: Warning %f345 was declared previous at ispass-2009-LIB.1.sm_30.ptx:31 skipping new declaration
GPGPU-Sim PTX: Warning %f346 was declared previous at ispass-2009-LIB.1.sm_30.ptx:31 skipping new declaration
GPGPU-Sim PTX: Warning %f347 was declared previous at ispass-2009-LIB.1.sm_30.ptx:31 skipping new declaration
GPGPU-Sim PTX: Warning %f348 was declared previous at ispass-2009-LIB.1.sm_30.ptx:31 skipping new declaration
GPGPU-Sim PTX: Warning %f349 was declared previous at ispass-2009-LIB.1.sm_30.ptx:31 skipping new declaration
GPGPU-Sim PTX: Warning %f350 was declared previous at ispass-2009-LIB.1.sm_30.ptx:31 skipping new declaration
GPGPU-Sim PTX: Warning %f351 was declared previous at ispass-2009-LIB.1.sm_30.ptx:31 skipping new declaration
GPGPU-Sim PTX: Warning %f352 was declared previous at ispass-2009-LIB.1.sm_30.ptx:31 skipping new declaration
GPGPU-Sim PTX: Warning %f353 was declared previous at ispass-2009-LIB.1.sm_30.ptx:31 skipping new declaration
GPGPU-Sim PTX: Warning %f354 was declared previous at ispass-2009-LIB.1.sm_30.ptx:31 skipping new declaration
GPGPU-Sim PTX: Warning %f355 was declared previous at ispass-2009-LIB.1.sm_30.ptx:31 skipping new declaration
GPGPU-Sim PTX: Warning %f356 was declared previous at ispass-2009-LIB.1.sm_30.ptx:31 skipping new declaration
GPGPU-Sim PTX: Warning %f357 was declared previous at ispass-2009-LIB.1.sm_30.ptx:31 skipping new declaration
GPGPU-Sim PTX: Warning %f358 was declared previous at ispass-2009-LIB.1.sm_30.ptx:31 skipping new declaration
GPGPU-Sim PTX: Warning %f359 was declared previous at ispass-2009-LIB.1.sm_30.ptx:31 skipping new declaration
GPGPU-Sim PTX: Warning %f360 was declared previous at ispass-2009-LIB.1.sm_30.ptx:31 skipping new declaration
GPGPU-Sim PTX: Warning %f361 was declared previous at ispass-2009-LIB.1.sm_30.ptx:31 skipping new declaration
GPGPU-Sim PTX: Warning %f362 was declared previous at ispass-2009-LIB.1.sm_30.ptx:31 skipping new declaration
GPGPU-Sim PTX: Warning %f363 was declared previous at ispass-2009-LIB.1.sm_30.ptx:31 skipping new declaration
GPGPU-Sim PTX: Warning %f364 was declared previous at ispass-2009-LIB.1.sm_30.ptx:31 skipping new declaration
GPGPU-Sim PTX: Warning %f365 was declared previous at ispass-2009-LIB.1.sm_30.ptx:31 skipping new declaration
GPGPU-Sim PTX: Warning %f366 was declared previous at ispass-2009-LIB.1.sm_30.ptx:31 skipping new declaration
GPGPU-Sim PTX: Warning %f367 was declared previous at ispass-2009-LIB.1.sm_30.ptx:31 skipping new declaration
GPGPU-Sim PTX: Warning %f368 was declared previous at ispass-2009-LIB.1.sm_30.ptx:31 skipping new declaration
GPGPU-Sim PTX: Warning %f369 was declared previous at ispass-2009-LIB.1.sm_30.ptx:31 skipping new declaration
GPGPU-Sim PTX: Warning %f370 was declared previous at ispass-2009-LIB.1.sm_30.ptx:31 skipping new declaration
GPGPU-Sim PTX: Warning %f371 was declared previous at ispass-2009-LIB.1.sm_30.ptx:31 skipping new declaration
GPGPU-Sim PTX: Warning %f372 was declared previous at ispass-2009-LIB.1.sm_30.ptx:31 skipping new declaration
GPGPU-Sim PTX: Warning %f373 was declared previous at ispass-2009-LIB.1.sm_30.ptx:31 skipping new declaration
GPGPU-Sim PTX: Warning %f374 was declared previous at ispass-2009-LIB.1.sm_30.ptx:31 skipping new declaration
GPGPU-Sim PTX: Warning %f375 was declared previous at ispass-2009-LIB.1.sm_30.ptx:31 skipping new declaration
GPGPU-Sim PTX: Warning %f376 was declared previous at ispass-2009-LIB.1.sm_30.ptx:31 skipping new declaration
GPGPU-Sim PTX: Warning %f377 was declared previous at ispass-2009-LIB.1.sm_30.ptx:31 skipping new declaration
GPGPU-Sim PTX: Warning %f378 was declared previous at ispass-2009-LIB.1.sm_30.ptx:31 skipping new declaration
GPGPU-Sim PTX: Warning %f379 was declared previous at ispass-2009-LIB.1.sm_30.ptx:31 skipping new declaration
[...]
RTWc_limit_alone = 1911 

Commands details: 
total_CMD = 617441 
n_nop = 615255 
Read = 636 
Write = 0 
L2_Alloc = 0 
L2_WB = 1116 
n_act = 227 
n_pre = 211 
n_ref = 0 
n_req = 915 
total_req = 1752 

Dual Bus Interface Util: 
issued_total_row = 438 
issued_total_col = 1752 
Row_Bus_Util =  0.000709 
CoL_Bus_Util = 0.002838 
Either_Row_CoL_Bus_Util = 0.003540 
Issued_on_Two_Bus_Simul_Util = 0.000006 
issued_two_Eff = 0.001830 
queue_avg = 0.018557 


dram_util_bins: 0 0 0 0 0 0 0 0 0 0
dram_eff_bins: 0 0 0 0 0 0 0 0 0 0
mrqq: max=8 avg=0.0185572
Memory Partition 11: 
Memory Sub Parition 22: pending memory requests:
  mf: uid=3890608, sid00:w01, part=11, addr=0x1fac18a0, load , size=32, LOCAL_R  status = IN_PARTITION_ROP_DELAY (349962), 0x120f8 w01[11111111111111111111111111111111]: Pathcalc_Portfolio_KernelGPU2 PC=0x120f8 (ispass-2009-LIB.5.sm_62.ptx:1836) ld.local.f32 %f116, [%rd119+8];
  mf: uid=3890218, sid09:w00, part=11, addr=0x1fae1920, load , size=32, LOCAL_R  status = IN_PARTITION_ROP_DELAY (349919), 0x12060 w00[11111111111111111111111111111111]: Pathcalc_Portfolio_KernelGPU2 PC=0x12060 (ispass-2009-LIB.5.sm_62.ptx:1817) ld.local.f32 %f103, [%rd119];
  mf: uid=3890597, sid00:w01, part=11, addr=0x1fac18c0, load , size=32, LOCAL_R  status = IN_PARTITION_ROP_DELAY (349961), 0x120f8 w01[11111111111111111111111111111111]: Pathcalc_Portfolio_KernelGPU2 PC=0x120f8 (ispass-2009-LIB.5.sm_62.ptx:1836) ld.local.f32 %f116, [%rd119+8];
  mf: uid=3890074, sid01:w01, part=11, addr=0x1fab71a0, load , size=32, LOCAL_R  status = IN_PARTITION_ROP_DELAY (349910), 0x12060 w01[11111111111111111111111111111111]: Pathcalc_Portfolio_KernelGPU2 PC=0x12060 (ispass-2009-LIB.5.sm_62.ptx:1817) ld.local.f32 %f103, [%rd119];
  mf: uid=3890077, sid07:w02, part=11, addr=0x1fac3b20, load , size=32, LOCAL_R  status = IN_PARTITION_ROP_DELAY (349911), 0x120f8 w02[11111111111111111111111111111111]: Pathcalc_Portfolio_KernelGPU2 PC=0x120f8 (ispass-2009-LIB.5.sm_62.ptx:1836) ld.local.f32 %f116, [%rd119+8];
  mf: uid=3890062, sid07:w02, part=11, addr=0x1fac3b40, load , size=32, LOCAL_R  status = IN_PARTITION_ROP_DELAY (349909), 0x120f8 w02[11111111111111111111111111111111]: Pathcalc_Portfolio_KernelGPU2 PC=0x120f8 (ispass-2009-LIB.5.sm_62.ptx:1836) ld.local.f32 %f116, [%rd119+8];
  mf: uid=3890043, sid01:w01, part=11, addr=0x1fab71e0, load , size=32, LOCAL_R  status = IN_PARTITION_ROP_DELAY (349906), 0x12060 w01[11111111111111111111111111111111]: Pathcalc_Portfolio_KernelGPU2 PC=0x12060 (ispass-2009-LIB.5.sm_62.ptx:1817) ld.local.f32 %f103, [%rd119];
  mf: uid=3890205, sid09:w00, part=11, addr=0x1fae1940, load , size=32, LOCAL_R  status = IN_PARTITION_ROP_DELAY (349918), 0x12060 w00[11111111111111111111111111111111]: Pathcalc_Portfolio_KernelGPU2 PC=0x12060 (ispass-2009-LIB.5.sm_62.ptx:1817) ld.local.f32 %f103, [%rd119];
  mf: uid=3890059, sid01:w01, part=11, addr=0x1fab71c0, load , size=32, LOCAL_R  status = IN_PARTITION_ROP_DELAY (349908), 0x12060 w01[11111111111111111111111111111111]: Pathcalc_Portfolio_KernelGPU2 PC=0x12060 (ispass-2009-LIB.5.sm_62.ptx:1817) ld.local.f32 %f103, [%rd119];
  mf: uid=3890619, sid00:w01, part=11, addr=0x1fac1880, load , size=32, LOCAL_R  status = IN_PARTITION_ROP_DELAY (349963), 0x120f8 w01[11111111111111111111111111111111]: Pathcalc_Portfolio_KernelGPU2 PC=0x120f8 (ispass-2009-LIB.5.sm_62.ptx:1836) ld.local.f32 %f116, [%rd119+8];
  mf: uid=3890230, sid09:w00, part=11, addr=0x1fae1900, load , size=32, LOCAL_R  status = IN_PARTITION_ROP_DELAY (349920), 0x12060 w00[11111111111111111111111111111111]: Pathcalc_Portfolio_KernelGPU2 PC=0x12060 (ispass-2009-LIB.5.sm_62.ptx:1817) ld.local.f32 %f103, [%rd119];
  mf: uid=3890048, sid07:w02, part=11, addr=0x1fac3b60, load , size=32, LOCAL_R  status = IN_PARTITION_ROP_DELAY (349907), 0x120f8 w02[11111111111111111111111111111111]: Pathcalc_Portfolio_KernelGPU2 PC=0x120f8 (ispass-2009-LIB.5.sm_62.ptx:1836) ld.local.f32 %f116, [%rd119+8];
  mf: uid=3890085, sid07:w02, part=11, addr=0x1fac3b00, load , size=32, LOCAL_R  status = IN_PARTITION_ROP_DELAY (349913), 0x120f8 w02[11111111111111111111111111111111]: Pathcalc_Portfolio_KernelGPU2 PC=0x120f8 (ispass-2009-LIB.5.sm_62.ptx:1836) ld.local.f32 %f116, [%rd119+8];
  mf: uid=3890083, sid01:w01, part=11, addr=0x1fab7180, load , size=32, LOCAL_R  status = IN_PARTITION_ROP_DELAY (349912), 0x12060 w01[11111111111111111111111111111111]: Pathcalc_Portfolio_KernelGPU2 PC=0x12060 (ispass-2009-LIB.5.sm_62.ptx:1817) ld.local.f32 %f103, [%rd119];
  mf: uid=3890582, sid00:w01, part=11, addr=0x1fac18e0, load , size=32, LOCAL_R  status = IN_PARTITION_ROP_DELAY (349960), 0x120f8 w01[11111111111111111111111111111111]: Pathcalc_Portfolio_KernelGPU2 PC=0x120f8 (ispass-2009-LIB.5.sm_62.ptx:1836) ld.local.f32 %f116, [%rd119+8];
  mf: uid=3890188, sid09:w00, part=11, addr=0x1fae1960, load , size=32, LOCAL_R  status = IN_PARTITION_ROP_DELAY (349917), 0x12060 w00[11111111111111111111111111111111]: Pathcalc_Portfolio_KernelGPU2 PC=0x12060 (ispass-2009-LIB.5.sm_62.ptx:1817) ld.local.f32 %f103, [%rd119];
Cache L2_bank_022:
MSHR contents

Memory Sub Parition 23: pending memory requests:
  mf: uid=3889609, sid21:w01, part=11, addr=0x1fae25e0, load , size=32, LOCAL_R  status = IN_PARTITION_ROP_DELAY (349864), 0x12060 w01[11111111111111111111111111111111]: Pathcalc_Portfolio_KernelGPU2 PC=0x12060 (ispass-2009-LIB.5.sm_62.ptx:1817) ld.local.f32 %f103, [%rd119];
  mf: uid=3890257, sid22:w00, part=11, addr=0x1faf2220, load , size=32, LOCAL_R  status = IN_PARTITION_ROP_DELAY (349922), 0x12108 w00[11111111111111111111111111111111]: Pathcalc_Portfolio_KernelGPU2 PC=0x12108 (ispass-2009-LIB.5.sm_62.ptx:1838) ld.local.f32 %f118, [%rd119+12];
  mf: uid=3890191, sid15:w01, part=11, addr=0x1fad7780, load , size=32, LOCAL_R  status = IN_PARTITION_ROP_DELAY (349917), 0x120f8 w01[11111111111111111111111111111111]: Pathcalc_Portfolio_KernelGPU2 PC=0x120f8 (ispass-2009-LIB.5.sm_62.ptx:1836) ld.local.f32 %f116, [%rd119+8];
  mf: uid=3889637, sid21:w01, part=11, addr=0x1fae2580, load , size=32, LOCAL_R  status = IN_PARTITION_ROP_DELAY (349867), 0x12060 w01[11111111111111111111111111111111]: Pathcalc_Portfolio_KernelGPU2 PC=0x12060 (ispass-2009-LIB.5.sm_62.ptx:1817) ld.local.f32 %f103, [%rd119];
  mf: uid=3890272, sid22:w00, part=11, addr=0x1faf2200, load , size=32, LOCAL_R  status = IN_PARTITION_ROP_DELAY (349923), 0x12108 w00[11111111111111111111111111111111]: Pathcalc_Portfolio_KernelGPU2 PC=0x12108 (ispass-2009-LIB.5.sm_62.ptx:1838) ld.local.f32 %f118, [%rd119+12];
  mf: uid=3890161, sid15:w01, part=11, addr=0x1fad77c0, load , size=32, LOCAL_R  status = IN_PARTITION_ROP_DELAY (349915), 0x120f8 w01[11111111111111111111111111111111]: Pathcalc_Portfolio_KernelGPU2 PC=0x120f8 (ispass-2009-LIB.5.sm_62.ptx:1836) ld.local.f32 %f116, [%rd119+8];
  mf: uid=3889620, sid21:w01, part=11, addr=0x1fae25c0, load , size=32, LOCAL_R  status = IN_PARTITION_ROP_DELAY (349865), 0x12060 w01[11111111111111111111111111111111]: Pathcalc_Portfolio_KernelGPU2 PC=0x12060 (ispass-2009-LIB.5.sm_62.ptx:1817) ld.local.f32 %f103, [%rd119];
  mf: uid=3890176, sid15:w01, part=11, addr=0x1fad77a0, load , size=32, LOCAL_R  status = IN_PARTITION_ROP_DELAY (349916), 0x120f8 w01[11111111111111111111111111111111]: Pathcalc_Portfolio_KernelGPU2 PC=0x120f8 (ispass-2009-LIB.5.sm_62.ptx:1836) ld.local.f32 %f116, [%rd119+8];
  mf: uid=3890022, sid16:w03, part=11, addr=0x1faf38c0, load , size=32, LOCAL_R  status = IN_PARTITION_ROP_DELAY (349904), 0x12108 w03[11111111111111111111111111111111]: Pathcalc_Portfolio_KernelGPU2 PC=0x12108 (ispass-2009-LIB.5.sm_62.ptx:1838) ld.local.f32 %f118, [%rd119+12];
  mf: uid=3890235, sid22:w00, part=11, addr=0x1faf2260, load , size=32, LOCAL_R  status = IN_PARTITION_ROP_DELAY (349920), 0x12108 w00[11111111111111111111111111111111]: Pathcalc_Portfolio_KernelGPU2 PC=0x12108 (ispass-2009-LIB.5.sm_62.ptx:1838) ld.local.f32 %f118, [%rd119+12];
  mf: uid=3890036, sid16:w03, part=11, addr=0x1faf38a0, load , size=32, LOCAL_R  status = IN_PARTITION_ROP_DELAY (349905), 0x12108 w03[11111111111111111111111111111111]: Pathcalc_Portfolio_KernelGPU2 PC=0x12108 (ispass-2009-LIB.5.sm_62.ptx:1838) ld.local.f32 %f118, [%rd119+12];
  mf: uid=3889630, sid21:w01, part=11, addr=0x1fae25a0, load , size=32, LOCAL_R  status = IN_PARTITION_ROP_DELAY (349866), 0x12060 w01[11111111111111111111111111111111]: Pathcalc_Portfolio_KernelGPU2 PC=0x12060 (ispass-2009-LIB.5.sm_62.ptx:1817) ld.local.f32 %f103, [%rd119];
  mf: uid=3890247, sid22:w00, part=11, addr=0x1faf2240, load , size=32, LOCAL_R  status = IN_PARTITION_ROP_DELAY (349921), 0x12108 w00[11111111111111111111111111111111]: Pathcalc_Portfolio_KernelGPU2 PC=0x12108 (ispass-2009-LIB.5.sm_62.ptx:1838) ld.local.f32 %f118, [%rd119+12];
  mf: uid=3890057, sid16:w03, part=11, addr=0x1faf3880, load , size=32, LOCAL_R  status = IN_PARTITION_ROP_DELAY (349906), 0x12108 w03[11111111111111111111111111111111]: Pathcalc_Portfolio_KernelGPU2 PC=0x12108 (ispass-2009-LIB.5.sm_62.ptx:1838) ld.local.f32 %f118, [%rd119+12];
  mf: uid=3890154, sid15:w01, part=11, addr=0x1fad77e0, load , size=32, LOCAL_R  status = IN_PARTITION_ROP_DELAY (349914), 0x120f8 w01[11111111111111111111111111111111]: Pathcalc_Portfolio_KernelGPU2 PC=0x120f8 (ispass-2009-LIB.5.sm_62.ptx:1836) ld.local.f32 %f116, [%rd119+8];
  mf: uid=3890010, sid16:w03, part=11, addr=0x1faf38e0, load , size=32, LOCAL_R  status = IN_PARTITION_ROP_DELAY (349903), 0x12108 w03[11111111111111111111111111111111]: Pathcalc_Portfolio_KernelGPU2 PC=0x12108 (ispass-2009-LIB.5.sm_62.ptx:1838) ld.local.f32 %f118, [%rd119+12];
Cache L2_bank_023:
MSHR contents

In Dram Latency Queue (total = 0): 
DRAM[11]: 16 bks, busW=4 BL=8 CL=16, tRRD=8 tCCD=2, tRCD=16 tRAS=37 tRP=16 tRC=52
n_cmd=617441 n_nop=616388 n_act=134 n_pre=119 n_ref_event=0 n_req=407 n_rd=276 n_rd_L2_A=0 n_write=0 n_wr_bk=524 bw_util=0.002591
n_activity=7695 dram_eff=0.2079
bk0: 8a 616785i bk1: 0a 617240i bk2: 32a 616847i bk3: 28a 616947i bk4: 12a 616877i bk5: 24a 616815i bk6: 8a 617183i bk7: 24a 616891i bk8: 24a 616899i bk9: 20a 616937i bk10: 20a 616915i bk11: 8a 617202i bk12: 8a 617278i bk13: 0a 617443i bk14: 16a 617236i bk15: 44a 616648i 

------------------------------------------------------------------------

Row_Buffer_Locality = 0.670762
Row_Buffer_Locality_read = 0.873188
Row_Buffer_Locality_write = 0.244275
Bank_Level_Parallism = 1.334514
Bank_Level_Parallism_Col = 1.191585
Bank_Level_Parallism_Ready = 1.021197
write_to_read_ratio_blp_rw_average = 0.712914
GrpLevelPara = 1.161032 

BW Util details:
bwutil = 0.002591 
total_CMD = 617441 
util_bw = 1600 
Wasted_Col = 2685 
Wasted_Row = 1213 
Idle = 611943 

BW Util Bottlenecks: 
RCDc_limit = 560 
RCDWRc_limit = 829 
WTRc_limit = 150 
RTWc_limit = 796 
CCDLc_limit = 1142 
rwq = 0 
CCDLc_limit_alone = 1078 
WTRc_limit_alone = 140 
RTWc_limit_alone = 742 

Commands details: 
total_CMD = 617441 
n_nop = 616388 
Read = 276 
Write = 0 
L2_Alloc = 0 
L2_WB = 524 
n_act = 134 
n_pre = 119 
n_ref = 0 
n_req = 407 
total_req = 800 

Dual Bus Interface Util: 
issued_total_row = 253 
issued_total_col = 800 
Row_Bus_Util =  0.000410 
CoL_Bus_Util = 0.001296 
Either_Row_CoL_Bus_Util = 0.001705 
Issued_on_Two_Bus_Simul_Util = 0.000000 
issued_two_Eff = 0.000000 
queue_avg = 0.008148 


dram_util_bins: 0 0 0 0 0 0 0 0 0 0
dram_eff_bins: 0 0 0 0 0 0 0 0 0 0
mrqq: max=6 avg=0.00814815

========= L2 cache stats =========
L2_cache_bank[0]: Access = 28276, Miss = 3588, Miss_rate = 0.127, Pending_hits = 0, Reservation_fails = 0
L2_cache_bank[1]: Access = 30080, Miss = 3680, Miss_rate = 0.122, Pending_hits = 0, Reservation_fails = 0
L2_cache_bank[2]: Access = 28920, Miss = 3704, Miss_rate = 0.128, Pending_hits = 0, Reservation_fails = 0
L2_cache_bank[3]: Access = 25464, Miss = 3312, Miss_rate = 0.130, Pending_hits = 0, Reservation_fails = 0
L2_cache_bank[4]: Access = 29704, Miss = 3848, Miss_rate = 0.130, Pending_hits = 0, Reservation_fails = 0
L2_cache_bank[5]: Access = 30803, Miss = 3584, Miss_rate = 0.116, Pending_hits = 0, Reservation_fails = 0
L2_cache_bank[6]: Access = 30040, Miss = 3920, Miss_rate = 0.130, Pending_hits = 0, Reservation_fails = 0
L2_cache_bank[7]: Access = 29920, Miss = 4496, Miss_rate = 0.150, Pending_hits = 0, Reservation_fails = 0
L2_cache_bank[8]: Access = 30640, Miss = 3808, Miss_rate = 0.124, Pending_hits = 0, Reservation_fails = 0
L2_cache_bank[9]: Access = 25544, Miss = 3408, Miss_rate = 0.133, Pending_hits = 0, Reservation_fails = 0
L2_cache_bank[10]: Access = 28416, Miss = 3372, Miss_rate = 0.119, Pending_hits = 0, Reservation_fails = 0
L2_cache_bank[11]: Access = 28032, Miss = 3624, Miss_rate = 0.129, Pending_hits = 0, Reservation_fails = 0
L2_cache_bank[12]: Access = 28240, Miss = 3604, Miss_rate = 0.128, Pending_hits = 0, Reservation_fails = 0
L2_cache_bank[13]: Access = 28588, Miss = 3652, Miss_rate = 0.128, Pending_hits = 0, Reservation_fails = 0
L2_cache_bank[14]: Access = 28260, Miss = 3624, Miss_rate = 0.128, Pending_hits = 0, Reservation_fails = 0
L2_cache_bank[15]: Access = 27084, Miss = 3728, Miss_rate = 0.138, Pending_hits = 0, Reservation_fails = 0
L2_cache_bank[16]: Access = 28692, Miss = 3704, Miss_rate = 0.129, Pending_hits = 0, Reservation_fails = 0
L2_cache_bank[17]: Access = 27864, Miss = 3432, Miss_rate = 0.123, Pending_hits = 0, Reservation_fails = 0
L2_cache_bank[18]: Access = 27628, Miss = 3564, Miss_rate = 0.129, Pending_hits = 0, Reservation_fails = 0
L2_cache_bank[19]: Access = 28196, Miss = 3576, Miss_rate = 0.127, Pending_hits = 0, Reservation_fails = 0
L2_cache_bank[20]: Access = 30976, Miss = 3796, Miss_rate = 0.123, Pending_hits = 0, Reservation_fails = 0
L2_cache_bank[21]: Access = 30104, Miss = 4136, Miss_rate = 0.137, Pending_hits = 0, Reservation_fails = 0
L2_cache_bank[22]: Access = 27716, Miss = 3528, Miss_rate = 0.127, Pending_hits = 0, Reservation_fails = 0
L2_cache_bank[23]: Access = 25372, Miss = 3204, Miss_rate = 0.126, Pending_hits = 0, Reservation_fails = 0
L2_total_cache_accesses = 684559
L2_total_cache_misses = 87892
L2_total_cache_miss_rate = 0.1284
L2_total_cache_pending_hits = 0
L2_total_cache_reservation_fails = 0
L2_total_cache_breakdown:
	L2_cache_stats_breakdown[GLOBAL_ACC_R][HIT] = 0
	L2_cache_stats_breakdown[GLOBAL_ACC_R][HIT_RESERVED] = 0
	L2_cache_stats_breakdown[GLOBAL_ACC_R][MISS] = 0
	L2_cache_stats_breakdown[GLOBAL_ACC_R][RESERVATION_FAIL] = 0
	L2_cache_stats_breakdown[GLOBAL_ACC_R][SECTOR_MISS] = 0
	L2_cache_stats_breakdown[LOCAL_ACC_R][HIT] = 596667
	L2_cache_stats_breakdown[LOCAL_ACC_R][HIT_RESERVED] = 0
	L2_cache_stats_breakdown[LOCAL_ACC_R][MISS] = 1493
	L2_cache_stats_breakdown[LOCAL_ACC_R][RESERVATION_FAIL] = 0
	L2_cache_stats_breakdown[LOCAL_ACC_R][SECTOR_MISS] = 4479
	L2_cache_stats_breakdown[CONST_ACC_R][HIT] = 0
	L2_cache_stats_breakdown[CONST_ACC_R][HIT_RESERVED] = 0
	L2_cache_stats_breakdown[CONST_ACC_R][MISS] = 0
	L2_cache_stats_breakdown[CONST_ACC_R][RESERVATION_FAIL] = 0
	L2_cache_stats_breakdown[CONST_ACC_R][SECTOR_MISS] = 0
	L2_cache_stats_breakdown[TEXTURE_ACC_R][HIT] = 0
	L2_cache_stats_breakdown[TEXTURE_ACC_R][HIT_RESERVED] = 0
	L2_cache_stats_breakdown[TEXTURE_ACC_R][MISS] = 0
	L2_cache_stats_breakdown[TEXTURE_ACC_R][RESERVATION_FAIL] = 0
	L2_cache_stats_breakdown[TEXTURE_ACC_R][SECTOR_MISS] = 0
	L2_cache_stats_breakdown[GLOBAL_ACC_W][HIT] = 0
	L2_cache_stats_breakdown[GLOBAL_ACC_W][HIT_RESERVED] = 0
	L2_cache_stats_breakdown[GLOBAL_ACC_W][MISS] = 0
	L2_cache_stats_breakdown[GLOBAL_ACC_W][RESERVATION_FAIL] = 0
	L2_cache_stats_breakdown[GLOBAL_ACC_W][SECTOR_MISS] = 0
	L2_cache_stats_breakdown[LOCAL_ACC_W][HIT] = 0
	L2_cache_stats_breakdown[LOCAL_ACC_W][HIT_RESERVED] = 0
	L2_cache_stats_breakdown[LOCAL_ACC_W][MISS] = 20480
	L2_cache_stats_breakdown[LOCAL_ACC_W][RESERVATION_FAIL] = 0
	L2_cache_stats_breakdown[LOCAL_ACC_W][SECTOR_MISS] = 61440
	L2_cache_stats_breakdown[L1_WRBK_ACC][HIT] = 0
	L2_cache_stats_breakdown[L1_WRBK_ACC][HIT_RESERVED] = 0
	L2_cache_stats_breakdown[L1_WRBK_ACC][MISS] = 0
	L2_cache_stats_breakdown[L1_WRBK_ACC][RESERVATION_FAIL] = 0
	L2_cache_stats_breakdown[L1_WRBK_ACC][SECTOR_MISS] = 0
	L2_cache_stats_breakdown[L2_WRBK_ACC][HIT] = 0
	L2_cache_stats_breakdown[L2_WRBK_ACC][HIT_RESERVED] = 0
	L2_cache_stats_breakdown[L2_WRBK_ACC][MISS] = 0
	L2_cache_stats_breakdown[L2_WRBK_ACC][RESERVATION_FAIL] = 0
	L2_cache_stats_breakdown[L2_WRBK_ACC][SECTOR_MISS] = 0
	L2_cache_stats_breakdown[INST_ACC_R][HIT] = 0
	L2_cache_stats_breakdown[INST_ACC_R][HIT_RESERVED] = 0
	L2_cache_stats_breakdown[INST_ACC_R][MISS] = 0
	L2_cache_stats_breakdown[INST_ACC_R][RESERVATION_FAIL] = 0
	L2_cache_stats_breakdown[INST_ACC_R][SECTOR_MISS] = 0
	L2_cache_stats_breakdown[L1_WR_ALLOC_R][HIT] = 0
	L2_cache_stats_breakdown[L1_WR_ALLOC_R][HIT_RESERVED] = 0
	L2_cache_stats_breakdown[L1_WR_ALLOC_R][MISS] = 0
	L2_cache_stats_breakdown[L1_WR_ALLOC_R][RESERVATION_FAIL] = 0
	L2_cache_stats_breakdown[L1_WR_ALLOC_R][SECTOR_MISS] = 0
	L2_cache_stats_breakdown[L2_WR_ALLOC_R][HIT] = 0
	L2_cache_stats_breakdown[L2_WR_ALLOC_R][HIT_RESERVED] = 0
	L2_cache_stats_breakdown[L2_WR_ALLOC_R][MISS] = 0
	L2_cache_stats_breakdown[L2_WR_ALLOC_R][RESERVATION_FAIL] = 0
	L2_cache_stats_breakdown[L2_WR_ALLOC_R][SECTOR_MISS] = 0
	L2_cache_stats_breakdown[LOCAL_ACC_R][TOTAL_ACCESS] = 602639
	L2_cache_stats_breakdown[LOCAL_ACC_W][TOTAL_ACCESS] = 81920
L2_total_cache_reservation_fail_breakdown:
L2_cache_data_port_util = 0.071
L2_cache_fill_port_util = 0.001

icnt_total_pkts_mem_to_simt=684549
icnt_total_pkts_simt_to_mem=684752
LD_mem_lat_dist  0 0 0 0 0 0 0 0 0 0 0 0 0 0 0 0 0 0 0 0 0 0 0 0 0 0 0
ST_mem_lat_dist  0 0 0 0 0 0 0 0 0 0 0 0 0 0 0 0 0 0 0 0 0 0 0 0 0 0 0
----------------------------Interconnect-DETAILS--------------------------------
Class 0:
Packet latency average = 39.3799
	minimum = 5
	maximum = 821
Network latency average = 12.4706
	minimum = 5
	maximum = 214
Slowest packet = 2323
Flit latency average = 12.4706
	minimum = 5
	maximum = 214
Slowest flit = 73232
Fragmentation average = 0
	minimum = 0
	maximum = 0
Injected packet rate average = 0.0752441
	minimum = 0.0611488 (at node 10)
	maximum = 0.091506 (at node 0)
Accepted packet rate average = 0.075243
	minimum = 0.0611488 (at node 10)
	maximum = 0.0914603 (at node 0)
Injected flit rate average = 0.0752441
	minimum = 0.0611488 (at node 10)
	maximum = 0.091506 (at node 0)
Accepted flit rate average= 0.075243
	minimum = 0.0611488 (at node 10)
	maximum = 0.0914603 (at node 0)
Injected packet length average = 1
Accepted packet length average = 1
Total in-flight flits = 20 (20 measured)
====== Overall Traffic Statistics ======
====== Traffic class 0 ======
Packet latency average = 39.3799 (1 samples)
	minimum = 5 (1 samples)
	maximum = 821 (1 samples)
Network latency average = 12.4706 (1 samples)
	minimum = 5 (1 samples)
	maximum = 214 (1 samples)
Flit latency average = 12.4706 (1 samples)
	minimum = 5 (1 samples)
	maximum = 214 (1 samples)
Fragmentation average = 0 (1 samples)
	minimum = 0 (1 samples)
	maximum = 0 (1 samples)
Injected packet rate average = 0.0752441 (1 samples)
	minimum = 0.0611488 (1 samples)
	maximum = 0.091506 (1 samples)
Accepted packet rate average = 0.075243 (1 samples)
	minimum = 0.0611488 (1 samples)
	maximum = 0.0914603 (1 samples)
Injected flit rate average = 0.0752441 (1 samples)
	minimum = 0.0611488 (1 samples)
	maximum = 0.091506 (1 samples)
Accepted flit rate average = 0.075243 (1 samples)
	minimum = 0.0611488 (1 samples)
	maximum = 0.0914603 (1 samples)
Injected packet size average = 1 (1 samples)
Accepted packet size average = 1 (1 samples)
Hops average = 1 (1 samples)
----------------------------END-of-Interconnect-DETAILS-------------------------


gpgpu_simulation_time = 0 days, 0 hrs, 2 min, 7 sec (127 sec)
gpgpu_simulation_rate = 787404 (inst/sec)
gpgpu_simulation_rate = 2755 (cycle/sec)
gpgpu_silicon_slowdown = 514337x
GPGPU-Sim: *** simulation thread exiting ***
GPGPU-Sim: ** break due to reaching the maximum cycles (or instructions) **
GPGPU-Sim: *** exit detected ***
