

        *** GPGPU-Sim Simulator Version 4.0.0  [build gpgpu-sim_git-commit-90ec3399763d7c8512cfe7dc193473086c38ca38_modified_0.0] ***


GPGPU-Sim PTX: simulation mode 0 (can change with PTX_SIM_MODE_FUNC environment variable:
               1=functional simulation only, 0=detailed performance simulator)
GPGPU-Sim PTX: overriding embedded ptx with ptx file (PTX_SIM_USE_PTX_FILE is set)
GPGPU-Sim: Configuration options:

-save_embedded_ptx                      0 # saves ptx files embedded in binary as <n>.ptx
-keep                                   0 # keep intermediate files created by GPGPU-Sim when interfacing with external programs
-gpgpu_ptx_save_converted_ptxplus                    0 # Saved converted ptxplus to a file
-gpgpu_occupancy_sm_number                   70 # The SM number to pass to ptxas when getting register usage for computing GPU occupancy. This parameter is required in the config.
-ptx_opcode_latency_int      4,13,4,5,145,32 # Opcode latencies for integers <ADD,MAX,MUL,MAD,DIV,SHFL>Default 1,1,19,25,145,32
-ptx_opcode_latency_fp          4,13,4,5,39 # Opcode latencies for single precision floating points <ADD,MAX,MUL,MAD,DIV>Default 1,1,1,1,30
-ptx_opcode_latency_dp         8,19,8,8,330 # Opcode latencies for double precision floating points <ADD,MAX,MUL,MAD,DIV>Default 8,8,8,8,335
-ptx_opcode_latency_sfu                  100 # Opcode latencies for SFU instructionsDefault 8
-ptx_opcode_latency_tesnor                   64 # Opcode latencies for Tensor instructionsDefault 64
-ptx_opcode_initiation_int          2,2,2,2,8,4 # Opcode initiation intervals for integers <ADD,MAX,MUL,MAD,DIV,SHFL>Default 1,1,4,4,32,4
-ptx_opcode_initiation_fp            2,2,2,2,4 # Opcode initiation intervals for single precision floating points <ADD,MAX,MUL,MAD,DIV>Default 1,1,1,1,5
-ptx_opcode_initiation_dp          4,4,4,4,130 # Opcode initiation intervals for double precision floating points <ADD,MAX,MUL,MAD,DIV>Default 8,8,8,8,130
-ptx_opcode_initiation_sfu                    8 # Opcode initiation intervals for sfu instructionsDefault 8
-ptx_opcode_initiation_tensor                   64 # Opcode initiation intervals for tensor instructionsDefault 64
-cdp_latency         7200,8000,100,12000,1600 # CDP API latency <cudaStreamCreateWithFlags, cudaGetParameterBufferV2_init_perWarp, cudaGetParameterBufferV2_perKernel, cudaLaunchDeviceV2_init_perWarp, cudaLaunchDevicV2_perKernel>Default 7200,8000,100,12000,1600
-network_mode                           2 # Interconnection network mode
-inter_config_file                   mesh # Interconnection network config file
-icnt_in_buffer_limit                  512 # in_buffer_limit
-icnt_out_buffer_limit                  512 # out_buffer_limit
-icnt_subnets                           2 # subnets
-icnt_arbiter_algo                      1 # arbiter_algo
-icnt_verbose                           0 # inct_verbose
-icnt_grant_cycles                      1 # grant_cycles
-gpgpu_ptx_use_cuobjdump                    1 # Use cuobjdump to extract ptx and sass from binaries
-gpgpu_experimental_lib_support                    0 # Try to extract code from cuda libraries [Broken because of unknown cudaGetExportTable]
-checkpoint_option                      0 #  checkpointing flag (0 = no checkpoint)
-checkpoint_kernel                      1 #  checkpointing during execution of which kernel (1- 1st kernel)
-checkpoint_CTA                         0 #  checkpointing after # of CTA (< less than total CTA)
-resume_option                          0 #  resume flag (0 = no resume)
-resume_kernel                          0 #  Resume from which kernel (1= 1st kernel)
-resume_CTA                             0 #  resume from which CTA 
-checkpoint_CTA_t                       0 #  resume from which CTA 
-checkpoint_insn_Y                      0 #  resume from which CTA 
-gpgpu_ptx_convert_to_ptxplus                    0 # Convert SASS (native ISA) to ptxplus and run ptxplus
-gpgpu_ptx_force_max_capability                   70 # Force maximum compute capability
-gpgpu_ptx_inst_debug_to_file                    0 # Dump executed instructions' debug information to file
-gpgpu_ptx_inst_debug_file       inst_debug.txt # Executed instructions' debug output file
-gpgpu_ptx_inst_debug_thread_uid                    1 # Thread UID for executed instructions' debug output
-gpgpu_simd_model                       1 # 1 = post-dominator
-gpgpu_shader_core_pipeline              2048:32 # shader core pipeline config, i.e., {<nthread>:<warpsize>}
-gpgpu_tex_cache:l1  N:4:128:256,L:R:m:N:L,T:512:8,128:2 # per-shader L1 texture cache  (READ-ONLY) config  {<nsets>:<bsize>:<assoc>,<rep>:<wr>:<alloc>:<wr_alloc>,<mshr>:<N>:<merge>,<mq>:<rf>}
-gpgpu_const_cache:l1 N:128:64:8,L:R:f:N:L,S:2:64,4 # per-shader L1 constant memory cache  (READ-ONLY) config  {<nsets>:<bsize>:<assoc>,<rep>:<wr>:<alloc>:<wr_alloc>,<mshr>:<N>:<merge>,<mq>} 
-gpgpu_cache:il1     N:64:128:16,L:R:f:N:L,S:2:48,4 # shader L1 instruction cache config  {<nsets>:<bsize>:<assoc>,<rep>:<wr>:<alloc>:<wr_alloc>,<mshr>:<N>:<merge>,<mq>} 
-gpgpu_cache:dl1     S:1:128:256,L:L:s:N:L,A:256:8,16:0,32 # per-shader L1 data cache config  {<nsets>:<bsize>:<assoc>,<rep>:<wr>:<alloc>:<wr_alloc>,<mshr>:<N>:<merge>,<mq> | none}
-gpgpu_l1_banks                         4 # The number of L1 cache banks
-gpgpu_l1_banks_byte_interleaving                   32 # l1 banks byte interleaving granularity
-gpgpu_l1_banks_hashing_function                    0 # l1 banks hashing function
-gpgpu_l1_latency                      20 # L1 Hit Latency
-gpgpu_smem_latency                    20 # smem Latency
-gpgpu_cache:dl1PrefL1                 none # per-shader L1 data cache config  {<nsets>:<bsize>:<assoc>,<rep>:<wr>:<alloc>:<wr_alloc>,<mshr>:<N>:<merge>,<mq> | none}
-gpgpu_cache:dl1PrefShared                 none # per-shader L1 data cache config  {<nsets>:<bsize>:<assoc>,<rep>:<wr>:<alloc>:<wr_alloc>,<mshr>:<N>:<merge>,<mq> | none}
-gpgpu_gmem_skip_L1D                    0 # global memory access skip L1D cache (implements -Xptxas -dlcm=cg, default=no skip)
-gpgpu_perfect_mem                      0 # enable perfect memory mode (no cache miss)
-n_regfile_gating_group                    4 # group of lanes that should be read/written together)
-gpgpu_clock_gated_reg_file                    0 # enable clock gated reg file for power calculations
-gpgpu_clock_gated_lanes                    0 # enable clock gated lanes for power calculations
-gpgpu_shader_registers                65536 # Number of registers per shader core. Limits number of concurrent CTAs. (default 8192)
-gpgpu_registers_per_block                65536 # Maximum number of registers per CTA. (default 8192)
-gpgpu_ignore_resources_limitation                    0 # gpgpu_ignore_resources_limitation (default 0)
-gpgpu_shader_cta                      32 # Maximum number of concurrent CTAs in shader (default 8)
-gpgpu_num_cta_barriers                   16 # Maximum number of named barriers per CTA (default 16)
-gpgpu_n_clusters                      40 # number of processing clusters
-gpgpu_n_cores_per_cluster                    2 # number of simd cores per cluster
-gpgpu_n_cluster_ejection_buffer_size                   32 # number of packets in ejection buffer
-gpgpu_n_ldst_response_buffer_size                    2 # number of response packets in ld/st unit ejection buffer
-gpgpu_shmem_per_block                65536 # Size of shared memory per thread block or CTA (default 48kB)
-gpgpu_shmem_size                   98304 # Size of shared memory per shader core (default 16kB)
-gpgpu_adaptive_cache_config                    1 # adaptive_cache_config
-gpgpu_shmem_sizeDefault                98304 # Size of shared memory per shader core (default 16kB)
-gpgpu_shmem_size_PrefL1                16384 # Size of shared memory per shader core (default 16kB)
-gpgpu_shmem_size_PrefShared                16384 # Size of shared memory per shader core (default 16kB)
-gpgpu_shmem_num_banks                   32 # Number of banks in the shared memory in each shader core (default 16)
-gpgpu_shmem_limited_broadcast                    0 # Limit shared memory to do one broadcast per cycle (default on)
-gpgpu_shmem_warp_parts                    1 # Number of portions a warp is divided into for shared memory bank conflict check 
-gpgpu_mem_unit_ports                    1 # The number of memory transactions allowed per core cycle
-gpgpu_shmem_warp_parts                    1 # Number of portions a warp is divided into for shared memory bank conflict check 
-gpgpu_warpdistro_shader                   -1 # Specify which shader core to collect the warp size distribution from
-gpgpu_warp_issue_shader                    0 # Specify which shader core to collect the warp issue distribution from
-gpgpu_local_mem_map                    1 # Mapping from local memory space address to simulated GPU physical address space (default = enabled)
-gpgpu_num_reg_banks                    8 # Number of register banks (default = 8)
-gpgpu_reg_bank_use_warp_id                    0 # Use warp ID in mapping registers to banks (default = off)
-gpgpu_sub_core_model                    1 # Sub Core Volta/Pascal model (default = off)
-gpgpu_enable_specialized_operand_collector                    0 # enable_specialized_operand_collector
-gpgpu_operand_collector_num_units_sp                    4 # number of collector units (default = 4)
-gpgpu_operand_collector_num_units_dp                    0 # number of collector units (default = 0)
-gpgpu_operand_collector_num_units_sfu                    4 # number of collector units (default = 4)
-gpgpu_operand_collector_num_units_int                    0 # number of collector units (default = 0)
-gpgpu_operand_collector_num_units_tensor_core                    4 # number of collector units (default = 4)
-gpgpu_operand_collector_num_units_mem                    2 # number of collector units (default = 2)
-gpgpu_operand_collector_num_units_gen                    8 # number of collector units (default = 0)
-gpgpu_operand_collector_num_in_ports_sp                    1 # number of collector unit in ports (default = 1)
-gpgpu_operand_collector_num_in_ports_dp                    0 # number of collector unit in ports (default = 0)
-gpgpu_operand_collector_num_in_ports_sfu                    1 # number of collector unit in ports (default = 1)
-gpgpu_operand_collector_num_in_ports_int                    0 # number of collector unit in ports (default = 0)
-gpgpu_operand_collector_num_in_ports_tensor_core                    1 # number of collector unit in ports (default = 1)
-gpgpu_operand_collector_num_in_ports_mem                    1 # number of collector unit in ports (default = 1)
-gpgpu_operand_collector_num_in_ports_gen                    8 # number of collector unit in ports (default = 0)
-gpgpu_operand_collector_num_out_ports_sp                    1 # number of collector unit in ports (default = 1)
-gpgpu_operand_collector_num_out_ports_dp                    0 # number of collector unit in ports (default = 0)
-gpgpu_operand_collector_num_out_ports_sfu                    1 # number of collector unit in ports (default = 1)
-gpgpu_operand_collector_num_out_ports_int                    0 # number of collector unit in ports (default = 0)
-gpgpu_operand_collector_num_out_ports_tensor_core                    1 # number of collector unit in ports (default = 1)
-gpgpu_operand_collector_num_out_ports_mem                    1 # number of collector unit in ports (default = 1)
-gpgpu_operand_collector_num_out_ports_gen                    8 # number of collector unit in ports (default = 0)
-gpgpu_coalesce_arch                   60 # Coalescing arch (GT200 = 13, Fermi = 20)
-gpgpu_num_sched_per_core                    4 # Number of warp schedulers per core
-gpgpu_max_insn_issue_per_warp                    1 # Max number of instructions that can be issued per warp in one cycle by scheduler (either 1 or 2)
-gpgpu_dual_issue_diff_exec_units                    1 # should dual issue use two different execution unit resources (Default = 1)
-gpgpu_simt_core_sim_order                    1 # Select the simulation order of cores in a cluster (0=Fix, 1=Round-Robin)
-gpgpu_pipeline_widths 4,4,4,4,4,4,4,4,4,4,8,4,4 # Pipeline widths ID_OC_SP,ID_OC_DP,ID_OC_INT,ID_OC_SFU,ID_OC_MEM,OC_EX_SP,OC_EX_DP,OC_EX_INT,OC_EX_SFU,OC_EX_MEM,EX_WB,ID_OC_TENSOR_CORE,OC_EX_TENSOR_CORE
-gpgpu_tensor_core_avail                    1 # Tensor Core Available (default=0)
-gpgpu_num_sp_units                     4 # Number of SP units (default=1)
-gpgpu_num_dp_units                     4 # Number of DP units (default=0)
-gpgpu_num_int_units                    4 # Number of INT units (default=0)
-gpgpu_num_sfu_units                    4 # Number of SF units (default=1)
-gpgpu_num_tensor_core_units                    4 # Number of tensor_core units (default=1)
-gpgpu_num_mem_units                    1 # Number if ldst units (default=1) WARNING: not hooked up to anything
-gpgpu_scheduler                      gto # Scheduler configuration: < lrr | gto | two_level_active > If two_level_active:<num_active_warps>:<inner_prioritization>:<outer_prioritization>For complete list of prioritization values see shader.h enum scheduler_prioritization_typeDefault: gto
-gpgpu_concurrent_kernel_sm                    0 # Support concurrent kernels on a SM (default = disabled)
-gpgpu_perfect_inst_const_cache                    1 # perfect inst and const cache mode, so all inst and const hits in the cache(default = disabled)
-gpgpu_inst_fetch_throughput                    4 # the number of fetched intruction per warp each cycle
-gpgpu_reg_file_port_throughput                    2 # the number ports of the register file
-specialized_unit_1         0,4,4,4,4,BRA # specialized unit config {<enabled>,<num_units>:<latency>:<initiation>,<ID_OC_SPEC>:<OC_EX_SPEC>,<NAME>}
-specialized_unit_2         0,4,4,4,4,BRA # specialized unit config {<enabled>,<num_units>:<latency>:<initiation>,<ID_OC_SPEC>:<OC_EX_SPEC>,<NAME>}
-specialized_unit_3         0,4,4,4,4,BRA # specialized unit config {<enabled>,<num_units>:<latency>:<initiation>,<ID_OC_SPEC>:<OC_EX_SPEC>,<NAME>}
-specialized_unit_4         0,4,4,4,4,BRA # specialized unit config {<enabled>,<num_units>:<latency>:<initiation>,<ID_OC_SPEC>:<OC_EX_SPEC>,<NAME>}
-specialized_unit_5         0,4,4,4,4,BRA # specialized unit config {<enabled>,<num_units>:<latency>:<initiation>,<ID_OC_SPEC>:<OC_EX_SPEC>,<NAME>}
-specialized_unit_6         0,4,4,4,4,BRA # specialized unit config {<enabled>,<num_units>:<latency>:<initiation>,<ID_OC_SPEC>:<OC_EX_SPEC>,<NAME>}
-specialized_unit_7         0,4,4,4,4,BRA # specialized unit config {<enabled>,<num_units>:<latency>:<initiation>,<ID_OC_SPEC>:<OC_EX_SPEC>,<NAME>}
-specialized_unit_8         0,4,4,4,4,BRA # specialized unit config {<enabled>,<num_units>:<latency>:<initiation>,<ID_OC_SPEC>:<OC_EX_SPEC>,<NAME>}
-gpgpu_perf_sim_memcpy                    1 # Fill the L2 cache on memcpy
-gpgpu_simple_dram_model                    0 # simple_dram_model with fixed latency and BW
-gpgpu_dram_scheduler                    1 # 0 = fifo, 1 = FR-FCFS (defaul)
-gpgpu_dram_partition_queues          64:64:64:64 # i2$:$2d:d2$:$2i
-l2_ideal                               0 # Use a ideal L2 cache that always hit
-gpgpu_cache:dl2     S:32:128:24,L:B:m:L:P,A:192:4,32:0,32 # unified banked L2 data cache config  {<nsets>:<bsize>:<assoc>,<rep>:<wr>:<alloc>:<wr_alloc>,<mshr>:<N>:<merge>,<mq>}
-gpgpu_cache:dl2_texture_only                    0 # L2 cache used for texture only
-gpgpu_n_mem                           24 # number of memory modules (e.g. memory controllers) in gpu
-gpgpu_n_sub_partition_per_mchannel                    2 # number of memory subpartition in each memory module
-gpgpu_n_mem_per_ctrlr                    1 # number of memory chips per memory controller
-gpgpu_memlatency_stat                   14 # track and display latency statistics 0x2 enables MC, 0x4 enables queue logs
-gpgpu_frfcfs_dram_sched_queue_size                   64 # 0 = unlimited (default); # entries per chip
-gpgpu_dram_return_queue_size                  192 # 0 = unlimited (default); # entries per chip
-gpgpu_dram_buswidth                   16 # default = 4 bytes (8 bytes per cycle at DDR)
-gpgpu_dram_burst_length                    2 # Burst length of each DRAM request (default = 4 data bus cycle)
-dram_data_command_freq_ratio                    2 # Frequency ratio between DRAM data bus and command bus (default = 2 times, i.e. DDR)
-gpgpu_dram_timing_opt nbk=16:CCD=1:RRD=3:RCD=12:RAS=28:RP=12:RC=40: CL=12:WL=2:CDLR=3:WR=10:nbkgrp=4:CCDL=2:RTPL=3 # DRAM timing parameters = {nbk:tCCD:tRRD:tRCD:tRAS:tRP:tRC:CL:WL:tCDLR:tWR:nbkgrp:tCCDL:tRTPL}
-gpgpu_l2_rop_latency                  160 # ROP queue latency (default 85)
-dram_latency                         100 # DRAM latency (default 30)
-dram_dual_bus_interface                  257 # dual_bus_interface (default = 0) 
-dram_bnk_indexing_policy                    1 # dram_bnk_indexing_policy (0 = normal indexing, 1 = Xoring with the higher bits) (Default = 0)
-dram_bnkgrp_indexing_policy                    1 # dram_bnkgrp_indexing_policy (0 = take higher bits, 1 = take lower bits) (Default = 0)
-dram_seperate_write_queue_enable                    1 # Seperate_Write_Queue_Enable
-dram_write_queue_size           128:108:32 # Write_Queue_Size
-dram_elimnate_rw_turnaround                    0 # elimnate_rw_turnaround i.e set tWTR and tRTW = 0
-icnt_flit_size                        40 # icnt_flit_size
-gpgpu_mem_addr_mapping dramid@8;00000000.00000000.00000000.00000000.0000RRRR.RRRRRRRR.RBBBCCCB.CCCSSSSS # mapping memory address to dram model {dramid@<start bit>;<memory address map>}
-gpgpu_mem_addr_test                    0 # run sweep test to check address mapping for aliased address
-gpgpu_mem_address_mask                    1 # 0 = old addressing mask, 1 = new addressing mask, 2 = new add. mask + flipped bank sel and chip sel bits
-gpgpu_memory_partition_indexing                    2 # 0 = no indexing, 1 = bitwise xoring, 2 = IPoly, 3 = custom indexing
-gpuwattch_xml_file         gpuwattch.xml # GPUWattch XML file
-power_simulation_enabled                    0 # Turn on power simulator (1=On, 0=Off)
-power_per_cycle_dump                    0 # Dump detailed power output each cycle
-power_trace_enabled                    0 # produce a file for the power trace (1=On, 0=Off)
-power_trace_zlevel                     6 # Compression level of the power trace output log (0=no comp, 9=highest)
-steady_power_levels_enabled                    0 # produce a file for the steady power levels (1=On, 0=Off)
-steady_state_definition                  8:4 # allowed deviation:number of samples
-gpgpu_max_cycle                        0 # terminates gpu simulation early (0 = no limit)
-gpgpu_max_insn                 100000000 # terminates gpu simulation early (0 = no limit)
-gpgpu_max_cta                          0 # terminates gpu simulation early (0 = no limit)
-gpgpu_max_completed_cta                    0 # terminates gpu simulation early (0 = no limit)
-gpgpu_runtime_stat                   500 # display runtime statistics such as dram utilization {<freq>:<flag>}
-liveness_message_freq                    1 # Minimum number of seconds between simulation liveness messages (0 = always print)
-gpgpu_compute_capability_major                    7 # Major compute capability version number
-gpgpu_compute_capability_minor                    0 # Minor compute capability version number
-gpgpu_flush_l1_cache                    1 # Flush L1 cache at the end of each kernel call
-gpgpu_flush_l2_cache                    0 # Flush L2 cache at the end of each kernel call
-gpgpu_deadlock_detect                    1 # Stop the simulation at deadlock (1=on (default), 0=off)
-gpgpu_ptx_instruction_classification                    0 # if enabled will classify ptx instruction types per kernel (Max 255 kernels now)
-gpgpu_ptx_sim_mode                     0 # Select between Performance (default) or Functional simulation (1)
-gpgpu_clock_domains 1200.0:1200.0:1200.0:850.0 # Clock Domain Frequencies in MhZ {<Core Clock>:<ICNT Clock>:<L2 Clock>:<DRAM Clock>}
-gpgpu_max_concurrent_kernel                    8 # maximum kernels that can run concurrently on GPU
-gpgpu_cflog_interval                    0 # Interval between each snapshot in control flow logger
-visualizer_enabled                     0 # Turn on visualizer output (1=On, 0=Off)
-visualizer_outputfile                 NULL # Specifies the output log file for visualizer
-visualizer_zlevel                      6 # Compression level of the visualizer output log (0=no comp, 9=highest)
-gpgpu_stack_size_limit                 1024 # GPU thread stack size
-gpgpu_heap_size_limit              8388608 # GPU malloc heap size cb49321c35b0c0b9730ad9e2f895e55c  /root/test/LIB/ispass-2009-LIB
Extracting PTX file and ptxas options    1: ispass-2009-LIB.1.sm_30.ptx -arch=sm_30
Extracting PTX file and ptxas options    2: ispass-2009-LIB.2.sm_35.ptx -arch=sm_35
Extracting PTX file and ptxas options    3: ispass-2009-LIB.3.sm_50.ptx -arch=sm_50
Extracting PTX file and ptxas options    4: ispass-2009-LIB.4.sm_60.ptx -arch=sm_60
Extracting PTX file and ptxas options    5: ispass-2009-LIB.5.sm_62.ptx -arch=sm_62

-gpgpu_runtime_sync_depth_limit                    2 # GPU device runtime synchronize depth
-gpgpu_runtime_pending_launch_count_limit                 2048 # GPU device runtime pending launch count
-trace_enabled                          0 # Turn on traces
-trace_components                    none # comma seperated list of traces to enable. Complete list found in trace_streams.tup. Default none
-trace_sampling_core                    0 # The core which is printed using CORE_DPRINTF. Default 0
-trace_sampling_memory_partition                   -1 # The memory partition which is printed using MEMPART_DPRINTF. Default -1 (i.e. all)
-enable_ptx_file_line_stats                    1 # Turn on PTX source line statistic profiling. (1 = On)
-ptx_line_stats_filename gpgpu_inst_stats.txt # Output file for PTX source line statistics.
-gpgpu_kernel_launch_latency                    0 # Kernel launch latency in cycles. Default: 0
-gpgpu_cdp_enabled                      0 # Turn on CDP
-gpgpu_TB_launch_latency                    0 # thread block launch latency in cycles. Default: 0
DRAM Timing Options:
nbk                                    16 # number of banks
CCD                                     1 # column to column delay
RRD                                     3 # minimal delay between activation of rows in different banks
RCD                                    12 # row to column delay
RAS                                    28 # time needed to activate row
RP                                     12 # time needed to precharge (deactivate) row
RC                                     40 # row cycle time
CDLR                                    3 # switching from write to read (changes tWTR)
WR                                     10 # last data-in to row precharge
CL                                     12 # CAS latency
WL                                      2 # Write latency
nbkgrp                                  4 # number of bank groups
CCDL                                    2 # column to column delay between accesses to different bank groups
RTPL                                    3 # read to precharge delay between accesses to different bank groups
Total number of memory sub partition = 48
addr_dec_mask[CHIP]  = 0000000000000000 	high:64 low:0
addr_dec_mask[BK]    = 0000000000007100 	high:15 low:8
addr_dec_mask[ROW]   = 000000000fff8000 	high:28 low:15
addr_dec_mask[COL]   = 0000000000000eff 	high:12 low:0
addr_dec_mask[BURST] = 000000000000001f 	high:5 low:0
sub_partition_id_mask = 0000000000000100
GPGPU-Sim uArch: clock freqs: 1200000000.000000:1200000000.000000:1200000000.000000:850000000.000000
GPGPU-Sim uArch: clock periods: 0.00000000083333333333:0.00000000083333333333:0.00000000083333333333:0.00000000117647058824
*** Initializing Memory Statistics ***
GPGPU-Sim uArch: performance model initialization complete.
self exe links to: /root/test/LIB/ispass-2009-LIB
self exe links to: /root/test/LIB/ispass-2009-LIB
10.1
GPGPU-Sim PTX: __cudaRegisterFatBinary, fat_cubin_handle = 1, filename=default
self exe links to: /root/test/LIB/ispass-2009-LIB
Running md5sum using "md5sum /root/test/LIB/ispass-2009-LIB "
self exe links to: /root/test/LIB/ispass-2009-LIB
Extracting specific PTX file named ispass-2009-LIB.1.sm_30.ptx 
Extracting specific PTX file named ispass-2009-LIB.2.sm_35.ptx 
Extracting specific PTX file named ispass-2009-LIB.3.sm_50.ptx 
Extracting specific PTX file named ispass-2009-LIB.4.sm_60.ptx 
Extracting specific PTX file named ispass-2009-LIB.5.sm_62.ptx 
GPGPU-Sim PTX: __cudaRegisterFunction _Z29Pathcalc_Portfolio_KernelGPU2Pf : hostFun 0x0x404520, fat_cubin_handle = 1
GPGPU-Sim PTX: Parsing ispass-2009-LIB.1.sm_30.ptx
GPGPU-Sim PTX: allocating constant region for "N" from 0x100 to 0x104 (global memory space) 1
GPGPU-Sim PTX: allocating constant region for "Nmat" from 0x104 to 0x108 (global memory space) 2
GPGPU-Sim PTX: allocating constant region for "Nopt" from 0x108 to 0x10c (global memory space) 3
GPGPU-Sim PTX: allocating constant region for "maturities" from 0x180 to 0x1bc (global memory space) 4
GPGPU-Sim PTX: allocating constant region for "delta" from 0x1bc to 0x1c0 (global memory space) 5
GPGPU-Sim PTX: allocating constant region for "swaprates" from 0x200 to 0x23c (global memory space) 6
GPGPU-Sim PTX: allocating constant region for "lambda" from 0x280 to 0x3c0 (global memory space) 7
GPGPU-Sim PTX: allocating stack frame region for .local "__local_depot0" from 0x0 to 0x3840
GPGPU-Sim PTX: instruction assembly for function '_Z28Pathcalc_Portfolio_KernelGPUPfS_'...   done.
GPGPU-Sim PTX: allocating stack frame region for .local "__local_depot1" from 0x0 to 0x3c0
GPGPU-Sim PTX: instruction assembly for function '_Z29Pathcalc_Portfolio_KernelGPU2Pf'...   done.
GPGPU-Sim PTX: finished parsing EMBEDDED .ptx file ispass-2009-LIB.1.sm_30.ptx
GPGPU-Sim PTX: Parsing ispass-2009-LIB.2.sm_35.ptx
GPGPU-Sim PTX: Warning N was declared previous at ispass-2009-LIB.1.sm_30.ptx:14 skipping new declaration
GPGPU-Sim PTX: Warning Nmat was declared previous at ispass-2009-LIB.1.sm_30.ptx:15 skipping new declaration
GPGPU-Sim PTX: Warning Nopt was declared previous at ispass-2009-LIB.1.sm_30.ptx:16 skipping new declaration
GPGPU-Sim PTX: Warning maturities was declared previous at ispass-2009-LIB.1.sm_30.ptx:17 skipping new declaration
GPGPU-Sim PTX: Warning delta was declared previous at ispass-2009-LIB.1.sm_30.ptx:18 skipping new declaration
GPGPU-Sim PTX: Warning swaprates was declared previous at ispass-2009-LIB.1.sm_30.ptx:19 skipping new declaration
GPGPU-Sim PTX: Warning lambda was declared previous at ispass-2009-LIB.1.sm_30.ptx:20 skipping new declaration
GPGPU-Sim PTX: Warning __local_depot0 was declared previous at ispass-2009-LIB.1.sm_30.ptx:27 skipping new declaration
GPGPU-Sim PTX: Warning %SP was declared previous at ispass-2009-LIB.1.sm_30.ptx:28 skipping new declaration
GPGPU-Sim PTX: Warning %SPL was declared previous at ispass-2009-LIB.1.sm_30.ptx:29 skipping new declaration
GPGPU-Sim PTX: Warning %p0 was declared previous at ispass-2009-LIB.1.sm_30.ptx:30 skipping new declaration
GPGPU-Sim PTX: Warning %p1 was declared previous at ispass-2009-LIB.1.sm_30.ptx:30 skipping new declaration
GPGPU-Sim PTX: Warning %p2 was declared previous at ispass-2009-LIB.1.sm_30.ptx:30 skipping new declaration
GPGPU-Sim PTX: Warning %p3 was declared previous at ispass-2009-LIB.1.sm_30.ptx:30 skipping new declaration
GPGPU-Sim PTX: Warning %p4 was declared previous at ispass-2009-LIB.1.sm_30.ptx:30 skipping new declaration
GPGPU-Sim PTX: Warning %p5 was declared previous at ispass-2009-LIB.1.sm_30.ptx:30 skipping new declaration
GPGPU-Sim PTX: Warning %p6 was declared previous at ispass-2009-LIB.1.sm_30.ptx:30 skipping new declaration
GPGPU-Sim PTX: Warning %p7 was declared previous at ispass-2009-LIB.1.sm_30.ptx:30 skipping new declaration
GPGPU-Sim PTX: Warning %p8 was declared previous at ispass-2009-LIB.1.sm_30.ptx:30 skipping new declaration
GPGPU-Sim PTX: Warning %p9 was declared previous at ispass-2009-LIB.1.sm_30.ptx:30 skipping new declaration
GPGPU-Sim PTX: Warning %p10 was declared previous at ispass-2009-LIB.1.sm_30.ptx:30 skipping new declaration
GPGPU-Sim PTX: Warning %p11 was declared previous at ispass-2009-LIB.1.sm_30.ptx:30 skipping new declaration
GPGPU-Sim PTX: Warning %p12 was declared previous at ispass-2009-LIB.1.sm_30.ptx:30 skipping new declaration
GPGPU-Sim PTX: Warning %p13 was declared previous at ispass-2009-LIB.1.sm_30.ptx:30 skipping new declaration
GPGPU-Sim PTX: Warning %p14 was declared previous at ispass-2009-LIB.1.sm_30.ptx:30 skipping new declaration
GPGPU-Sim PTX: Warning %p15 was declared previous at ispass-2009-LIB.1.sm_30.ptx:30 skipping new declaration
GPGPU-Sim PTX: Warning %p16 was declared previous at ispass-2009-LIB.1.sm_30.ptx:30 skipping new declaration
GPGPU-Sim PTX: Warning %p17 was declared previous at ispass-2009-LIB.1.sm_30.ptx:30 skipping new declaration
GPGPU-Sim PTX: Warning %p18 was declared previous at ispass-2009-LIB.1.sm_30.ptx:30 skipping new declaration
GPGPU-Sim PTX: Warning %p19 was declared previous at ispass-2009-LIB.1.sm_30.ptx:30 skipping new declaration
GPGPU-Sim PTX: Warning %p20 was declared previous at ispass-2009-LIB.1.sm_30.ptx:30 skipping new declaration
GPGPU-Sim PTX: Warning %p21 was declared previous at ispass-2009-LIB.1.sm_30.ptx:30 skipping new declaration
GPGPU-Sim PTX: Warning %p22 was declared previous at ispass-2009-LIB.1.sm_30.ptx:30 skipping new declaration
GPGPU-Sim PTX: Warning %p23 was declared previous at ispass-2009-LIB.1.sm_30.ptx:30 skipping new declaration
GPGPU-Sim PTX: Warning %p24 was declared previous at ispass-2009-LIB.1.sm_30.ptx:30 skipping new declaration
GPGPU-Sim PTX: Warning %p25 was declared previous at ispass-2009-LIB.1.sm_30.ptx:30 skipping new declaration
GPGPU-Sim PTX: Warning %p26 was declared previous at ispass-2009-LIB.1.sm_30.ptx:30 skipping new declaration
GPGPU-Sim PTX: Warning %p27 was declared previous at ispass-2009-LIB.1.sm_30.ptx:30 skipping new declaration
GPGPU-Sim PTX: Warning %p28 was declared previous at ispass-2009-LIB.1.sm_30.ptx:30 skipping new declaration
GPGPU-Sim PTX: Warning %p29 was declared previous at ispass-2009-LIB.1.sm_30.ptx:30 skipping new declaration
GPGPU-Sim PTX: Warning %p30 was declared previous at ispass-2009-LIB.1.sm_30.ptx:30 skipping new declaration
GPGPU-Sim PTX: Warning %p31 was declared previous at ispass-2009-LIB.1.sm_30.ptx:30 skipping new declaration
GPGPU-Sim PTX: Warning %p32 was declared previous at ispass-2009-LIB.1.sm_30.ptx:30 skipping new declaration
GPGPU-Sim PTX: Warning %p33 was declared previous at ispass-2009-LIB.1.sm_30.ptx:30 skipping new declaration
GPGPU-Sim PTX: Warning %p34 was declared previous at ispass-2009-LIB.1.sm_30.ptx:30 skipping new declaration
GPGPU-Sim PTX: Warning %p35 was declared previous at ispass-2009-LIB.1.sm_30.ptx:30 skipping new declaration
GPGPU-Sim PTX: Warning %p36 was declared previous at ispass-2009-LIB.1.sm_30.ptx:30 skipping new declaration
GPGPU-Sim PTX: Warning %p37 was declared previous at ispass-2009-LIB.1.sm_30.ptx:30 skipping new declaration
GPGPU-Sim PTX: Warning %p38 was declared previous at ispass-2009-LIB.1.sm_30.ptx:30 skipping new declaration
GPGPU-Sim PTX: Warning %p39 was declared previous at ispass-2009-LIB.1.sm_30.ptx:30 skipping new declaration
GPGPU-Sim PTX: Warning %p40 was declared previous at ispass-2009-LIB.1.sm_30.ptx:30 skipping new declaration
GPGPU-Sim PTX: Warning %p41 was declared previous at ispass-2009-LIB.1.sm_30.ptx:30 skipping new declaration
GPGPU-Sim PTX: Warning %p42 was declared previous at ispass-2009-LIB.1.sm_30.ptx:30 skipping new declaration
GPGPU-Sim PTX: Warning %p43 was declared previous at ispass-2009-LIB.1.sm_30.ptx:30 skipping new declaration
GPGPU-Sim PTX: Warning %p44 was declared previous at ispass-2009-LIB.1.sm_30.ptx:30 skipping new declaration
GPGPU-Sim PTX: Warning %p45 was declared previous at ispass-2009-LIB.1.sm_30.ptx:30 skipping new declaration
GPGPU-Sim PTX: Warning %p46 was declared previous at ispass-2009-LIB.1.sm_30.ptx:30 skipping new declaration
GPGPU-Sim PTX: Warning %p47 was declared previous at ispass-2009-LIB.1.sm_30.ptx:30 skipping new declaration
GPGPU-Sim PTX: Warning %p48 was declared previous at ispass-2009-LIB.1.sm_30.ptx:30 skipping new declaration
GPGPU-Sim PTX: Warning %p49 was declared previous at ispass-2009-LIB.1.sm_30.ptx:30 skipping new declaration
GPGPU-Sim PTX: Warning %p50 was declared previous at ispass-2009-LIB.1.sm_30.ptx:30 skipping new declaration
GPGPU-Sim PTX: Warning %p51 was declared previous at ispass-2009-LIB.1.sm_30.ptx:30 skipping new declaration
GPGPU-Sim PTX: Warning %p52 was declared previous at ispass-2009-LIB.1.sm_30.ptx:30 skipping new declaration
GPGPU-Sim PTX: Warning %p53 was declared previous at ispass-2009-LIB.1.sm_30.ptx:30 skipping new declaration
GPGPU-Sim PTX: Warning %p54 was declared previous at ispass-2009-LIB.1.sm_30.ptx:30 skipping new declaration
GPGPU-Sim PTX: Warning %p55 was declared previous at ispass-2009-LIB.1.sm_30.ptx:30 skipping new declaration
GPGPU-Sim PTX: Warning %p56 was declared previous at ispass-2009-LIB.1.sm_30.ptx:30 skipping new declaration
GPGPU-Sim PTX: Warning %p57 was declared previous at ispass-2009-LIB.1.sm_30.ptx:30 skipping new declaration
GPGPU-Sim PTX: Warning %p58 was declared previous at ispass-2009-LIB.1.sm_30.ptx:30 skipping new declaration
GPGPU-Sim PTX: Warning %p59 was declared previous at ispass-2009-LIB.1.sm_30.ptx:30 skipping new declaration
GPGPU-Sim PTX: Warning %p60 was declared previous at ispass-2009-LIB.1.sm_30.ptx:30 skipping new declaration
GPGPU-Sim PTX: Warning %p61 was declared previous at ispass-2009-LIB.1.sm_30.ptx:30 skipping new declaration
GPGPU-Sim PTX: Warning %p62 was declared previous at ispass-2009-LIB.1.sm_30.ptx:30 skipping new declaration
GPGPU-Sim PTX: Warning %p63 was declared previous at ispass-2009-LIB.1.sm_30.ptx:30 skipping new declaration
GPGPU-Sim PTX: Warning %p64 was declared previous at ispass-2009-LIB.1.sm_30.ptx:30 skipping new declaration
GPGPU-Sim PTX: Warning %p65 was declared previous at ispass-2009-LIB.1.sm_30.ptx:30 skipping new declaration
GPGPU-Sim PTX: Warning %p66 was declared previous at ispass-2009-LIB.1.sm_30.ptx:30 skipping new declaration
GPGPU-Sim PTX: Warning %p67 was declared previous at ispass-2009-LIB.1.sm_30.ptx:30 skipping new declaration
GPGPU-Sim PTX: Warning %p68 was declared previous at ispass-2009-LIB.1.sm_30.ptx:30 skipping new declaration
GPGPU-Sim PTX: Warning %p69 was declared previous at ispass-2009-LIB.1.sm_30.ptx:30 skipping new declaration
GPGPU-Sim PTX: Warning %p70 was declared previous at ispass-2009-LIB.1.sm_30.ptx:30 skipping new declaration
GPGPU-Sim PTX: Warning %p71 was declared previous at ispass-2009-LIB.1.sm_30.ptx:30 skipping new declaration
GPGPU-Sim PTX: Warning %p72 was declared previous at ispass-2009-LIB.1.sm_30.ptx:30 skipping new declaration
GPGPU-Sim PTX: Warning %p73 was declared previous at ispass-2009-LIB.1.sm_30.ptx:30 skipping new declaration
GPGPU-Sim PTX: Warning %p74 was declared previous at ispass-2009-LIB.1.sm_30.ptx:30 skipping new declaration
GPGPU-Sim PTX: Warning %p75 was declared previous at ispass-2009-LIB.1.sm_30.ptx:30 skipping new declaration
GPGPU-Sim PTX: Warning %p76 was declared previous at ispass-2009-LIB.1.sm_30.ptx:30 skipping new declaration
GPGPU-Sim PTX: Warning %p77 was declared previous at ispass-2009-LIB.1.sm_30.ptx:30 skipping new declaration
GPGPU-Sim PTX: Warning %p78 was declared previous at ispass-2009-LIB.1.sm_30.ptx:30 skipping new declaration
GPGPU-Sim PTX: Warning %p79 was declared previous at ispass-2009-LIB.1.sm_30.ptx:30 skipping new declaration
GPGPU-Sim PTX: Warning %p80 was declared previous at ispass-2009-LIB.1.sm_30.ptx:30 skipping new declaration
GPGPU-Sim PTX: Warning %p81 was declared previous at ispass-2009-LIB.1.sm_30.ptx:30 skipping new declaration
GPGPU-Sim PTX: Warning %p82 was declared previous at ispass-2009-LIB.1.sm_30.ptx:30 skipping new declaration
GPGPU-Sim PTX: Warning %p83 was declared previous at ispass-2009-LIB.1.sm_30.ptx:30 skipping new declaration
GPGPU-Sim PTX: Warning %p84 was declared previous at ispass-2009-LIB.1.sm_30.ptx:30 skipping new declaration
GPGPU-Sim PTX: Warning %p85 was declared previous at ispass-2009-LIB.1.sm_30.ptx:30 skipping new declaration
GPGPU-Sim PTX: Warning %p86 was declared previous at ispass-2009-LIB.1.sm_30.ptx:30 skipping new declaration
GPGPU-Sim PTX: Warning %p87 was declared previous at ispass-2009-LIB.1.sm_30.ptx:30 skipping new declaration
GPGPU-Sim PTX: Warning %p88 was declared previous at ispass-2009-LIB.1.sm_30.ptx:30 skipping new declaration
GPGPU-Sim PTX: Warning %p89 was declared previous at ispass-2009-LIB.1.sm_30.ptx:30 skipping new declaration
GPGPU-Sim PTX: Warning %p90 was declared previous at ispass-2009-LIB.1.sm_30.ptx:30 skipping new declaration
GPGPU-Sim PTX: Warning %f0 was declared previous at ispass-2009-LIB.1.sm_30.ptx:31 skipping new declaration
GPGPU-Sim PTX: Warning %f1 was declared previous at ispass-2009-LIB.1.sm_30.ptx:31 skipping new declaration
GPGPU-Sim PTX: Warning %f2 was declared previous at ispass-2009-LIB.1.sm_30.ptx:31 skipping new declaration
GPGPU-Sim PTX: Warning %f3 was declared previous at ispass-2009-LIB.1.sm_30.ptx:31 skipping new declaration
GPGPU-Sim PTX: Warning %f4 was declared previous at ispass-2009-LIB.1.sm_30.ptx:31 skipping new declaration
GPGPU-Sim PTX: Warning %f5 was declared previous at ispass-2009-LIB.1.sm_30.ptx:31 skipping new declaration
GPGPU-Sim PTX: Warning %f6 was declared previous at ispass-2009-LIB.1.sm_30.ptx:31 skipping new declaration
GPGPU-Sim PTX: Warning %f7 was declared previous at ispass-2009-LIB.1.sm_30.ptx:31 skipping new declaration
GPGPU-Sim PTX: Warning %f8 was declared previous at ispass-2009-LIB.1.sm_30.ptx:31 skipping new declaration
GPGPU-Sim PTX: Warning %f9 was declared previous at ispass-2009-LIB.1.sm_30.ptx:31 skipping new declaration
GPGPU-Sim PTX: Warning %f10 was declared previous at ispass-2009-LIB.1.sm_30.ptx:31 skipping new declaration
GPGPU-Sim PTX: Warning %f11 was declared previous at ispass-2009-LIB.1.sm_30.ptx:31 skipping new declaration
GPGPU-Sim PTX: Warning %f12 was declared previous at ispass-2009-LIB.1.sm_30.ptx:31 skipping new declaration
GPGPU-Sim PTX: Warning %f13 was declared previous at ispass-2009-LIB.1.sm_30.ptx:31 skipping new declaration
GPGPU-Sim PTX: Warning %f14 was declared previous at ispass-2009-LIB.1.sm_30.ptx:31 skipping new declaration
GPGPU-Sim PTX: Warning %f15 was declared previous at ispass-2009-LIB.1.sm_30.ptx:31 skipping new declaration
GPGPU-Sim PTX: Warning %f16 was declared previous at ispass-2009-LIB.1.sm_30.ptx:31 skipping new declaration
GPGPU-Sim PTX: Warning %f17 was declared previous at ispass-2009-LIB.1.sm_30.ptx:31 skipping new declaration
GPGPU-Sim PTX: Warning %f18 was declared previous at ispass-2009-LIB.1.sm_30.ptx:31 skipping new declaration
GPGPU-Sim PTX: Warning %f19 was declared previous at ispass-2009-LIB.1.sm_30.ptx:31 skipping new declaration
GPGPU-Sim PTX: Warning %f20 was declared previous at ispass-2009-LIB.1.sm_30.ptx:31 skipping new declaration
GPGPU-Sim PTX: Warning %f21 was declared previous at ispass-2009-LIB.1.sm_30.ptx:31 skipping new declaration
GPGPU-Sim PTX: Warning %f22 was declared previous at ispass-2009-LIB.1.sm_30.ptx:31 skipping new declaration
GPGPU-Sim PTX: Warning %f23 was declared previous at ispass-2009-LIB.1.sm_30.ptx:31 skipping new declaration
GPGPU-Sim PTX: Warning %f24 was declared previous at ispass-2009-LIB.1.sm_30.ptx:31 skipping new declaration
GPGPU-Sim PTX: Warning %f25 was declared previous at ispass-2009-LIB.1.sm_30.ptx:31 skipping new declaration
GPGPU-Sim PTX: Warning %f26 was declared previous at ispass-2009-LIB.1.sm_30.ptx:31 skipping new declaration
GPGPU-Sim PTX: Warning %f27 was declared previous at ispass-2009-LIB.1.sm_30.ptx:31 skipping new declaration
GPGPU-Sim PTX: Warning %f28 was declared previous at ispass-2009-LIB.1.sm_30.ptx:31 skipping new declaration
GPGPU-Sim PTX: Warning %f29 was declared previous at ispass-2009-LIB.1.sm_30.ptx:31 skipping new declaration
GPGPU-Sim PTX: Warning %f30 was declared previous at ispass-2009-LIB.1.sm_30.ptx:31 skipping new declaration
GPGPU-Sim PTX: Warning %f31 was declared previous at ispass-2009-LIB.1.sm_30.ptx:31 skipping new declaration
GPGPU-Sim PTX: Warning %f32 was declared previous at ispass-2009-LIB.1.sm_30.ptx:31 skipping new declaration
GPGPU-Sim PTX: Warning %f33 was declared previous at ispass-2009-LIB.1.sm_30.ptx:31 skipping new declaration
GPGPU-Sim PTX: Warning %f34 was declared previous at ispass-2009-LIB.1.sm_30.ptx:31 skipping new declaration
GPGPU-Sim PTX: Warning %f35 was declared previous at ispass-2009-LIB.1.sm_30.ptx:31 skipping new declaration
GPGPU-Sim PTX: Warning %f36 was declared previous at ispass-2009-LIB.1.sm_30.ptx:31 skipping new declaration
GPGPU-Sim PTX: Warning %f37 was declared previous at ispass-2009-LIB.1.sm_30.ptx:31 skipping new declaration
GPGPU-Sim PTX: Warning %f38 was declared previous at ispass-2009-LIB.1.sm_30.ptx:31 skipping new declaration
GPGPU-Sim PTX: Warning %f39 was declared previous at ispass-2009-LIB.1.sm_30.ptx:31 skipping new declaration
GPGPU-Sim PTX: Warning %f40 was declared previous at ispass-2009-LIB.1.sm_30.ptx:31 skipping new declaration
GPGPU-Sim PTX: Warning %f41 was declared previous at ispass-2009-LIB.1.sm_30.ptx:31 skipping new declaration
GPGPU-Sim PTX: Warning %f42 was declared previous at ispass-2009-LIB.1.sm_30.ptx:31 skipping new declaration
GPGPU-Sim PTX: Warning %f43 was declared previous at ispass-2009-LIB.1.sm_30.ptx:31 skipping new declaration
GPGPU-Sim PTX: Warning %f44 was declared previous at ispass-2009-LIB.1.sm_30.ptx:31 skipping new declaration
GPGPU-Sim PTX: Warning %f45 was declared previous at ispass-2009-LIB.1.sm_30.ptx:31 skipping new declaration
GPGPU-Sim PTX: Warning %f46 was declared previous at ispass-2009-LIB.1.sm_30.ptx:31 skipping new declaration
GPGPU-Sim PTX: Warning %f47 was declared previous at ispass-2009-LIB.1.sm_30.ptx:31 skipping new declaration
GPGPU-Sim PTX: Warning %f48 was declared previous at ispass-2009-LIB.1.sm_30.ptx:31 skipping new declaration
GPGPU-Sim PTX: Warning %f49 was declared previous at ispass-2009-LIB.1.sm_30.ptx:31 skipping new declaration
GPGPU-Sim PTX: Warning %f50 was declared previous at ispass-2009-LIB.1.sm_30.ptx:31 skipping new declaration
GPGPU-Sim PTX: Warning %f51 was declared previous at ispass-2009-LIB.1.sm_30.ptx:31 skipping new declaration
GPGPU-Sim PTX: Warning %f52 was declared previous at ispass-2009-LIB.1.sm_30.ptx:31 skipping new declaration
GPGPU-Sim PTX: Warning %f53 was declared previous at ispass-2009-LIB.1.sm_30.ptx:31 skipping new declaration
GPGPU-Sim PTX: Warning %f54 was declared previous at ispass-2009-LIB.1.sm_30.ptx:31 skipping new declaration
GPGPU-Sim PTX: Warning %f55 was declared previous at ispass-2009-LIB.1.sm_30.ptx:31 skipping new declaration
GPGPU-Sim PTX: Warning %f56 was declared previous at ispass-2009-LIB.1.sm_30.ptx:31 skipping new declaration
GPGPU-Sim PTX: Warning %f57 was declared previous at ispass-2009-LIB.1.sm_30.ptx:31 skipping new declaration
GPGPU-Sim PTX: Warning %f58 was declared previous at ispass-2009-LIB.1.sm_30.ptx:31 skipping new declaration
GPGPU-Sim PTX: Warning %f59 was declared previous at ispass-2009-LIB.1.sm_30.ptx:31 skipping new declaration
GPGPU-Sim PTX: Warning %f60 was declared previous at ispass-2009-LIB.1.sm_30.ptx:31 skipping new declaration
GPGPU-Sim PTX: Warning %f61 was declared previous at ispass-2009-LIB.1.sm_30.ptx:31 skipping new declaration
GPGPU-Sim PTX: Warning %f62 was declared previous at ispass-2009-LIB.1.sm_30.ptx:31 skipping new declaration
GPGPU-Sim PTX: Warning %f63 was declared previous at ispass-2009-LIB.1.sm_30.ptx:31 skipping new declaration
GPGPU-Sim PTX: Warning %f64 was declared previous at ispass-2009-LIB.1.sm_30.ptx:31 skipping new declaration
GPGPU-Sim PTX: Warning %f65 was declared previous at ispass-2009-LIB.1.sm_30.ptx:31 skipping new declaration
GPGPU-Sim PTX: Warning %f66 was declared previous at ispass-2009-LIB.1.sm_30.ptx:31 skipping new declaration
GPGPU-Sim PTX: Warning %f67 was declared previous at ispass-2009-LIB.1.sm_30.ptx:31 skipping new declaration
GPGPU-Sim PTX: Warning %f68 was declared previous at ispass-2009-LIB.1.sm_30.ptx:31 skipping new declaration
GPGPU-Sim PTX: Warning %f69 was declared previous at ispass-2009-LIB.1.sm_30.ptx:31 skipping new declaration
GPGPU-Sim PTX: Warning %f70 was declared previous at ispass-2009-LIB.1.sm_30.ptx:31 skipping new declaration
GPGPU-Sim PTX: Warning %f71 was declared previous at ispass-2009-LIB.1.sm_30.ptx:31 skipping new declaration
GPGPU-Sim PTX: Warning %f72 was declared previous at ispass-2009-LIB.1.sm_30.ptx:31 skipping new declaration
GPGPU-Sim PTX: Warning %f73 was declared previous at ispass-2009-LIB.1.sm_30.ptx:31 skipping new declaration
GPGPU-Sim PTX: Warning %f74 was declared previous at ispass-2009-LIB.1.sm_30.ptx:31 skipping new declaration
GPGPU-Sim PTX: Warning %f75 was declared previous at ispass-2009-LIB.1.sm_30.ptx:31 skipping new declaration
GPGPU-Sim PTX: Warning %f76 was declared previous at ispass-2009-LIB.1.sm_30.ptx:31 skipping new declaration
GPGPU-Sim PTX: Warning %f77 was declared previous at ispass-2009-LIB.1.sm_30.ptx:31 skipping new declaration
GPGPU-Sim PTX: Warning %f78 was declared previous at ispass-2009-LIB.1.sm_30.ptx:31 skipping new declaration
GPGPU-Sim PTX: Warning %f79 was declared previous at ispass-2009-LIB.1.sm_30.ptx:31 skipping new declaration
GPGPU-Sim PTX: Warning %f80 was declared previous at ispass-2009-LIB.1.sm_30.ptx:31 skipping new declaration
GPGPU-Sim PTX: Warning %f81 was declared previous at ispass-2009-LIB.1.sm_30.ptx:31 skipping new declaration
GPGPU-Sim PTX: Warning %f82 was declared previous at ispass-2009-LIB.1.sm_30.ptx:31 skipping new declaration
GPGPU-Sim PTX: Warning %f83 was declared previous at ispass-2009-LIB.1.sm_30.ptx:31 skipping new declaration
GPGPU-Sim PTX: Warning %f84 was declared previous at ispass-2009-LIB.1.sm_30.ptx:31 skipping new declaration
GPGPU-Sim PTX: Warning %f85 was declared previous at ispass-2009-LIB.1.sm_30.ptx:31 skipping new declaration
GPGPU-Sim PTX: Warning %f86 was declared previous at ispass-2009-LIB.1.sm_30.ptx:31 skipping new declaration
GPGPU-Sim PTX: Warning %f87 was declared previous at ispass-2009-LIB.1.sm_30.ptx:31 skipping new declaration
GPGPU-Sim PTX: Warning %f88 was declared previous at ispass-2009-LIB.1.sm_30.ptx:31 skipping new declaration
GPGPU-Sim PTX: Warning %f89 was declared previous at ispass-2009-LIB.1.sm_30.ptx:31 skipping new declaration
GPGPU-Sim PTX: Warning %f90 was declared previous at ispass-2009-LIB.1.sm_30.ptx:31 skipping new declaration
GPGPU-Sim PTX: Warning %f91 was declared previous at ispass-2009-LIB.1.sm_30.ptx:31 skipping new declaration
GPGPU-Sim PTX: Warning %f92 was declared previous at ispass-2009-LIB.1.sm_30.ptx:31 skipping new declaration
GPGPU-Sim PTX: Warning %f93 was declared previous at ispass-2009-LIB.1.sm_30.ptx:31 skipping new declaration
GPGPU-Sim PTX: Warning %f94 was declared previous at ispass-2009-LIB.1.sm_30.ptx:31 skipping new declaration
GPGPU-Sim PTX: Warning %f95 was declared previous at ispass-2009-LIB.1.sm_30.ptx:31 skipping new declaration
GPGPU-Sim PTX: Warning %f96 was declared previous at ispass-2009-LIB.1.sm_30.ptx:31 skipping new declaration
GPGPU-Sim PTX: Warning %f97 was declared previous at ispass-2009-LIB.1.sm_30.ptx:31 skipping new declaration
GPGPU-Sim PTX: Warning %f98 was declared previous at ispass-2009-LIB.1.sm_30.ptx:31 skipping new declaration
GPGPU-Sim PTX: Warning %f99 was declared previous at ispass-2009-LIB.1.sm_30.ptx:31 skipping new declaration
GPGPU-Sim PTX: Warning %f100 was declared previous at ispass-2009-LIB.1.sm_30.ptx:31 skipping new declaration
GPGPU-Sim PTX: Warning %f101 was declared previous at ispass-2009-LIB.1.sm_30.ptx:31 skipping new declaration
GPGPU-Sim PTX: Warning %f102 was declared previous at ispass-2009-LIB.1.sm_30.ptx:31 skipping new declaration
GPGPU-Sim PTX: Warning %f103 was declared previous at ispass-2009-LIB.1.sm_30.ptx:31 skipping new declaration
GPGPU-Sim PTX: Warning %f104 was declared previous at ispass-2009-LIB.1.sm_30.ptx:31 skipping new declaration
GPGPU-Sim PTX: Warning %f105 was declared previous at ispass-2009-LIB.1.sm_30.ptx:31 skipping new declaration
GPGPU-Sim PTX: Warning %f106 was declared previous at ispass-2009-LIB.1.sm_30.ptx:31 skipping new declaration
GPGPU-Sim PTX: Warning %f107 was declared previous at ispass-2009-LIB.1.sm_30.ptx:31 skipping new declaration
GPGPU-Sim PTX: Warning %f108 was declared previous at ispass-2009-LIB.1.sm_30.ptx:31 skipping new declaration
GPGPU-Sim PTX: Warning %f109 was declared previous at ispass-2009-LIB.1.sm_30.ptx:31 skipping new declaration
GPGPU-Sim PTX: Warning %f110 was declared previous at ispass-2009-LIB.1.sm_30.ptx:31 skipping new declaration
GPGPU-Sim PTX: Warning %f111 was declared previous at ispass-2009-LIB.1.sm_30.ptx:31 skipping new declaration
GPGPU-Sim PTX: Warning %f112 was declared previous at ispass-2009-LIB.1.sm_30.ptx:31 skipping new declaration
GPGPU-Sim PTX: Warning %f113 was declared previous at ispass-2009-LIB.1.sm_30.ptx:31 skipping new declaration
GPGPU-Sim PTX: Warning %f114 was declared previous at ispass-2009-LIB.1.sm_30.ptx:31 skipping new declaration
GPGPU-Sim PTX: Warning %f115 was declared previous at ispass-2009-LIB.1.sm_30.ptx:31 skipping new declaration
GPGPU-Sim PTX: Warning %f116 was declared previous at ispass-2009-LIB.1.sm_30.ptx:31 skipping new declaration
GPGPU-Sim PTX: Warning %f117 was declared previous at ispass-2009-LIB.1.sm_30.ptx:31 skipping new declaration
GPGPU-Sim PTX: Warning %f118 was declared previous at ispass-2009-LIB.1.sm_30.ptx:31 skipping new declaration
GPGPU-Sim PTX: Warning %f119 was declared previous at ispass-2009-LIB.1.sm_30.ptx:31 skipping new declaration
GPGPU-Sim PTX: Warning %f120 was declared previous at ispass-2009-LIB.1.sm_30.ptx:31 skipping new declaration
GPGPU-Sim PTX: Warning %f121 was declared previous at ispass-2009-LIB.1.sm_30.ptx:31 skipping new declaration
GPGPU-Sim PTX: Warning %f122 was declared previous at ispass-2009-LIB.1.sm_30.ptx:31 skipping new declaration
GPGPU-Sim PTX: Warning %f123 was declared previous at ispass-2009-LIB.1.sm_30.ptx:31 skipping new declaration
GPGPU-Sim PTX: Warning %f124 was declared previous at ispass-2009-LIB.1.sm_30.ptx:31 skipping new declaration
GPGPU-Sim PTX: Warning %f125 was declared previous at ispass-2009-LIB.1.sm_30.ptx:31 skipping new declaration
GPGPU-Sim PTX: Warning %f126 was declared previous at ispass-2009-LIB.1.sm_30.ptx:31 skipping new declaration
GPGPU-Sim PTX: Warning %f127 was declared previous at ispass-2009-LIB.1.sm_30.ptx:31 skipping new declaration
GPGPU-Sim PTX: Warning %f128 was declared previous at ispass-2009-LIB.1.sm_30.ptx:31 skipping new declaration
GPGPU-Sim PTX: Warning %f129 was declared previous at ispass-2009-LIB.1.sm_30.ptx:31 skipping new declaration
GPGPU-Sim PTX: Warning %f130 was declared previous at ispass-2009-LIB.1.sm_30.ptx:31 skipping new declaration
GPGPU-Sim PTX: Warning %f131 was declared previous at ispass-2009-LIB.1.sm_30.ptx:31 skipping new declaration
GPGPU-Sim PTX: Warning %f132 was declared previous at ispass-2009-LIB.1.sm_30.ptx:31 skipping new declaration
GPGPU-Sim PTX: Warning %f133 was declared previous at ispass-2009-LIB.1.sm_30.ptx:31 skipping new declaration
GPGPU-Sim PTX: Warning %f134 was declared previous at ispass-2009-LIB.1.sm_30.ptx:31 skipping new declaration
GPGPU-Sim PTX: Warning %f135 was declared previous at ispass-2009-LIB.1.sm_30.ptx:31 skipping new declaration
GPGPU-Sim PTX: Warning %f136 was declared previous at ispass-2009-LIB.1.sm_30.ptx:31 skipping new declaration
GPGPU-Sim PTX: Warning %f137 was declared previous at ispass-2009-LIB.1.sm_30.ptx:31 skipping new declaration
GPGPU-Sim PTX: Warning %f138 was declared previous at ispass-2009-LIB.1.sm_30.ptx:31 skipping new declaration
GPGPU-Sim PTX: Warning %f139 was declared previous at ispass-2009-LIB.1.sm_30.ptx:31 skipping new declaration
GPGPU-Sim PTX: Warning %f140 was declared previous at ispass-2009-LIB.1.sm_30.ptx:31 skipping new declaration
GPGPU-Sim PTX: Warning %f141 was declared previous at ispass-2009-LIB.1.sm_30.ptx:31 skipping new declaration
GPGPU-Sim PTX: Warning %f142 was declared previous at ispass-2009-LIB.1.sm_30.ptx:31 skipping new declaration
GPGPU-Sim PTX: Warning %f143 was declared previous at ispass-2009-LIB.1.sm_30.ptx:31 skipping new declaration
GPGPU-Sim PTX: Warning %f144 was declared previous at ispass-2009-LIB.1.sm_30.ptx:31 skipping new declaration
GPGPU-Sim PTX: Warning %f145 was declared previous at ispass-2009-LIB.1.sm_30.ptx:31 skipping new declaration
GPGPU-Sim PTX: Warning %f146 was declared previous at ispass-2009-LIB.1.sm_30.ptx:31 skipping new declaration
GPGPU-Sim PTX: Warning %f147 was declared previous at ispass-2009-LIB.1.sm_30.ptx:31 skipping new declaration
GPGPU-Sim PTX: Warning %f148 was declared previous at ispass-2009-LIB.1.sm_30.ptx:31 skipping new declaration
GPGPU-Sim PTX: Warning %f149 was declared previous at ispass-2009-LIB.1.sm_30.ptx:31 skipping new declaration
GPGPU-Sim PTX: Warning %f150 was declared previous at ispass-2009-LIB.1.sm_30.ptx:31 skipping new declaration
GPGPU-Sim PTX: Warning %f151 was declared previous at ispass-2009-LIB.1.sm_30.ptx:31 skipping new declaration
GPGPU-Sim PTX: Warning %f152 was declared previous at ispass-2009-LIB.1.sm_30.ptx:31 skipping new declaration
GPGPU-Sim PTX: Warning %f153 was declared previous at ispass-2009-LIB.1.sm_30.ptx:31 skipping new declaration
GPGPU-Sim PTX: Warning %f154 was declared previous at ispass-2009-LIB.1.sm_30.ptx:31 skipping new declaration
GPGPU-Sim PTX: Warning %f155 was declared previous at ispass-2009-LIB.1.sm_30.ptx:31 skipping new declaration
GPGPU-Sim PTX: Warning %f156 was declared previous at ispass-2009-LIB.1.sm_30.ptx:31 skipping new declaration
GPGPU-Sim PTX: Warning %f157 was declared previous at ispass-2009-LIB.1.sm_30.ptx:31 skipping new declaration
GPGPU-Sim PTX: Warning %f158 was declared previous at ispass-2009-LIB.1.sm_30.ptx:31 skipping new declaration
GPGPU-Sim PTX: Warning %f159 was declared previous at ispass-2009-LIB.1.sm_30.ptx:31 skipping new declaration
GPGPU-Sim PTX: Warning %f160 was declared previous at ispass-2009-LIB.1.sm_30.ptx:31 skipping new declaration
GPGPU-Sim PTX: Warning %f161 was declared previous at ispass-2009-LIB.1.sm_30.ptx:31 skipping new declaration
GPGPU-Sim PTX: Warning %f162 was declared previous at ispass-2009-LIB.1.sm_30.ptx:31 skipping new declaration
GPGPU-Sim PTX: Warning %f163 was declared previous at ispass-2009-LIB.1.sm_30.ptx:31 skipping new declaration
GPGPU-Sim PTX: Warning %f164 was declared previous at ispass-2009-LIB.1.sm_30.ptx:31 skipping new declaration
GPGPU-Sim PTX: Warning %f165 was declared previous at ispass-2009-LIB.1.sm_30.ptx:31 skipping new declaration
GPGPU-Sim PTX: Warning %f166 was declared previous at ispass-2009-LIB.1.sm_30.ptx:31 skipping new declaration
GPGPU-Sim PTX: Warning %f167 was declared previous at ispass-2009-LIB.1.sm_30.ptx:31 skipping new declaration
GPGPU-Sim PTX: Warning %f168 was declared previous at ispass-2009-LIB.1.sm_30.ptx:31 skipping new declaration
GPGPU-Sim PTX: Warning %f169 was declared previous at ispass-2009-LIB.1.sm_30.ptx:31 skipping new declaration
GPGPU-Sim PTX: Warning %f170 was declared previous at ispass-2009-LIB.1.sm_30.ptx:31 skipping new declaration
GPGPU-Sim PTX: Warning %f171 was declared previous at ispass-2009-LIB.1.sm_30.ptx:31 skipping new declaration
GPGPU-Sim PTX: Warning %f172 was declared previous at ispass-2009-LIB.1.sm_30.ptx:31 skipping new declaration
GPGPU-Sim PTX: Warning %f173 was declared previous at ispass-2009-LIB.1.sm_30.ptx:31 skipping new declaration
GPGPU-Sim PTX: Warning %f174 was declared previous at ispass-2009-LIB.1.sm_30.ptx:31 skipping new declaration
GPGPU-Sim PTX: Warning %f175 was declared previous at ispass-2009-LIB.1.sm_30.ptx:31 skipping new declaration
GPGPU-Sim PTX: Warning %f176 was declared previous at ispass-2009-LIB.1.sm_30.ptx:31 skipping new declaration
GPGPU-Sim PTX: Warning %f177 was declared previous at ispass-2009-LIB.1.sm_30.ptx:31 skipping new declaration
GPGPU-Sim PTX: Warning %f178 was declared previous at ispass-2009-LIB.1.sm_30.ptx:31 skipping new declaration
GPGPU-Sim PTX: Warning %f179 was declared previous at ispass-2009-LIB.1.sm_30.ptx:31 skipping new declaration
GPGPU-Sim PTX: Warning %f180 was declared previous at ispass-2009-LIB.1.sm_30.ptx:31 skipping new declaration
GPGPU-Sim PTX: Warning %f181 was declared previous at ispass-2009-LIB.1.sm_30.ptx:31 skipping new declaration
GPGPU-Sim PTX: Warning %f182 was declared previous at ispass-2009-LIB.1.sm_30.ptx:31 skipping new declaration
GPGPU-Sim PTX: Warning %f183 was declared previous at ispass-2009-LIB.1.sm_30.ptx:31 skipping new declaration
GPGPU-Sim PTX: Warning %f184 was declared previous at ispass-2009-LIB.1.sm_30.ptx:31 skipping new declaration
GPGPU-Sim PTX: Warning %f185 was declared previous at ispass-2009-LIB.1.sm_30.ptx:31 skipping new declaration
GPGPU-Sim PTX: Warning %f186 was declared previous at ispass-2009-LIB.1.sm_30.ptx:31 skipping new declaration
GPGPU-Sim PTX: Warning %f187 was declared previous at ispass-2009-LIB.1.sm_30.ptx:31 skipping new declaration
GPGPU-Sim PTX: Warning %f188 was declared previous at ispass-2009-LIB.1.sm_30.ptx:31 skipping new declaration
GPGPU-Sim PTX: Warning %f189 was declared previous at ispass-2009-LIB.1.sm_30.ptx:31 skipping new declaration
GPGPU-Sim PTX: Warning %f190 was declared previous at ispass-2009-LIB.1.sm_30.ptx:31 skipping new declaration
GPGPU-Sim PTX: Warning %f191 was declared previous at ispass-2009-LIB.1.sm_30.ptx:31 skipping new declaration
GPGPU-Sim PTX: Warning %f192 was declared previous at ispass-2009-LIB.1.sm_30.ptx:31 skipping new declaration
GPGPU-Sim PTX: Warning %f193 was declared previous at ispass-2009-LIB.1.sm_30.ptx:31 skipping new declaration
GPGPU-Sim PTX: Warning %f194 was declared previous at ispass-2009-LIB.1.sm_30.ptx:31 skipping new declaration
GPGPU-Sim PTX: Warning %f195 was declared previous at ispass-2009-LIB.1.sm_30.ptx:31 skipping new declaration
GPGPU-Sim PTX: Warning %f196 was declared previous at ispass-2009-LIB.1.sm_30.ptx:31 skipping new declaration
GPGPU-Sim PTX: Warning %f197 was declared previous at ispass-2009-LIB.1.sm_30.ptx:31 skipping new declaration
GPGPU-Sim PTX: Warning %f198 was declared previous at ispass-2009-LIB.1.sm_30.ptx:31 skipping new declaration
GPGPU-Sim PTX: Warning %f199 was declared previous at ispass-2009-LIB.1.sm_30.ptx:31 skipping new declaration
GPGPU-Sim PTX: Warning %f200 was declared previous at ispass-2009-LIB.1.sm_30.ptx:31 skipping new declaration
GPGPU-Sim PTX: Warning %f201 was declared previous at ispass-2009-LIB.1.sm_30.ptx:31 skipping new declaration
GPGPU-Sim PTX: Warning %f202 was declared previous at ispass-2009-LIB.1.sm_30.ptx:31 skipping new declaration
GPGPU-Sim PTX: Warning %f203 was declared previous at ispass-2009-LIB.1.sm_30.ptx:31 skipping new declaration
GPGPU-Sim PTX: Warning %f204 was declared previous at ispass-2009-LIB.1.sm_30.ptx:31 skipping new declaration
GPGPU-Sim PTX: Warning %f205 was declared previous at ispass-2009-LIB.1.sm_30.ptx:31 skipping new declaration
GPGPU-Sim PTX: Warning %f206 was declared previous at ispass-2009-LIB.1.sm_30.ptx:31 skipping new declaration
GPGPU-Sim PTX: Warning %f207 was declared previous at ispass-2009-LIB.1.sm_30.ptx:31 skipping new declaration
GPGPU-Sim PTX: Warning %f208 was declared previous at ispass-2009-LIB.1.sm_30.ptx:31 skipping new declaration
GPGPU-Sim PTX: Warning %f209 was declared previous at ispass-2009-LIB.1.sm_30.ptx:31 skipping new declaration
GPGPU-Sim PTX: Warning %f210 was declared previous at ispass-2009-LIB.1.sm_30.ptx:31 skipping new declaration
GPGPU-Sim PTX: Warning %f211 was declared previous at ispass-2009-LIB.1.sm_30.ptx:31 skipping new declaration
GPGPU-Sim PTX: Warning %f212 was declared previous at ispass-2009-LIB.1.sm_30.ptx:31 skipping new declaration
GPGPU-Sim PTX: Warning %f213 was declared previous at ispass-2009-LIB.1.sm_30.ptx:31 skipping new declaration
GPGPU-Sim PTX: Warning %f214 was declared previous at ispass-2009-LIB.1.sm_30.ptx:31 skipping new declaration
GPGPU-Sim PTX: Warning %f215 was declared previous at ispass-2009-LIB.1.sm_30.ptx:31 skipping new declaration
GPGPU-Sim PTX: Warning %f216 was declared previous at ispass-2009-LIB.1.sm_30.ptx:31 skipping new declaration
GPGPU-Sim PTX: Warning %f217 was declared previous at ispass-2009-LIB.1.sm_30.ptx:31 skipping new declaration
GPGPU-Sim PTX: Warning %f218 was declared previous at ispass-2009-LIB.1.sm_30.ptx:31 skipping new declaration
GPGPU-Sim PTX: Warning %f219 was declared previous at ispass-2009-LIB.1.sm_30.ptx:31 skipping new declaration
GPGPU-Sim PTX: Warning %f220 was declared previous at ispass-2009-LIB.1.sm_30.ptx:31 skipping new declaration
GPGPU-Sim PTX: Warning %f221 was declared previous at ispass-2009-LIB.1.sm_30.ptx:31 skipping new declaration
GPGPU-Sim PTX: Warning %f222 was declared previous at ispass-2009-LIB.1.sm_30.ptx:31 skipping new declaration
GPGPU-Sim PTX: Warning %f223 was declared previous at ispass-2009-LIB.1.sm_30.ptx:31 skipping new declaration
GPGPU-Sim PTX: Warning %f224 was declared previous at ispass-2009-LIB.1.sm_30.ptx:31 skipping new declaration
GPGPU-Sim PTX: Warning %f225 was declared previous at ispass-2009-LIB.1.sm_30.ptx:31 skipping new declaration
GPGPU-Sim PTX: Warning %f226 was declared previous at ispass-2009-LIB.1.sm_30.ptx:31 skipping new declaration
GPGPU-Sim PTX: Warning %f227 was declared previous at ispass-2009-LIB.1.sm_30.ptx:31 skipping new declaration
GPGPU-Sim PTX: Warning %f228 was declared previous at ispass-2009-LIB.1.sm_30.ptx:31 skipping new declaration
GPGPU-Sim PTX: Warning %f229 was declared previous at ispass-2009-LIB.1.sm_30.ptx:31 skipping new declaration
GPGPU-Sim PTX: Warning %f230 was declared previous at ispass-2009-LIB.1.sm_30.ptx:31 skipping new declaration
GPGPU-Sim PTX: Warning %f231 was declared previous at ispass-2009-LIB.1.sm_30.ptx:31 skipping new declaration
GPGPU-Sim PTX: Warning %f232 was declared previous at ispass-2009-LIB.1.sm_30.ptx:31 skipping new declaration
GPGPU-Sim PTX: Warning %f233 was declared previous at ispass-2009-LIB.1.sm_30.ptx:31 skipping new declaration
GPGPU-Sim PTX: Warning %f234 was declared previous at ispass-2009-LIB.1.sm_30.ptx:31 skipping new declaration
GPGPU-Sim PTX: Warning %f235 was declared previous at ispass-2009-LIB.1.sm_30.ptx:31 skipping new declaration
GPGPU-Sim PTX: Warning %f236 was declared previous at ispass-2009-LIB.1.sm_30.ptx:31 skipping new declaration
GPGPU-Sim PTX: Warning %f237 was declared previous at ispass-2009-LIB.1.sm_30.ptx:31 skipping new declaration
GPGPU-Sim PTX: Warning %f238 was declared previous at ispass-2009-LIB.1.sm_30.ptx:31 skipping new declaration
GPGPU-Sim PTX: Warning %f239 was declared previous at ispass-2009-LIB.1.sm_30.ptx:31 skipping new declaration
GPGPU-Sim PTX: Warning %f240 was declared previous at ispass-2009-LIB.1.sm_30.ptx:31 skipping new declaration
GPGPU-Sim PTX: Warning %f241 was declared previous at ispass-2009-LIB.1.sm_30.ptx:31 skipping new declaration
GPGPU-Sim PTX: Warning %f242 was declared previous at ispass-2009-LIB.1.sm_30.ptx:31 skipping new declaration
GPGPU-Sim PTX: Warning %f243 was declared previous at ispass-2009-LIB.1.sm_30.ptx:31 skipping new declaration
GPGPU-Sim PTX: Warning %f244 was declared previous at ispass-2009-LIB.1.sm_30.ptx:31 skipping new declaration
GPGPU-Sim PTX: Warning %f245 was declared previous at ispass-2009-LIB.1.sm_30.ptx:31 skipping new declaration
GPGPU-Sim PTX: Warning %f246 was declared previous at ispass-2009-LIB.1.sm_30.ptx:31 skipping new declaration
GPGPU-Sim PTX: Warning %f247 was declared previous at ispass-2009-LIB.1.sm_30.ptx:31 skipping new declaration
GPGPU-Sim PTX: Warning %f248 was declared previous at ispass-2009-LIB.1.sm_30.ptx:31 skipping new declaration
GPGPU-Sim PTX: Warning %f249 was declared previous at ispass-2009-LIB.1.sm_30.ptx:31 skipping new declaration
GPGPU-Sim PTX: Warning %f250 was declared previous at ispass-2009-LIB.1.sm_30.ptx:31 skipping new declaration
GPGPU-Sim PTX: Warning %f251 was declared previous at ispass-2009-LIB.1.sm_30.ptx:31 skipping new declaration
GPGPU-Sim PTX: Warning %f252 was declared previous at ispass-2009-LIB.1.sm_30.ptx:31 skipping new declaration
GPGPU-Sim PTX: Warning %f253 was declared previous at ispass-2009-LIB.1.sm_30.ptx:31 skipping new declaration
GPGPU-Sim PTX: Warning %f254 was declared previous at ispass-2009-LIB.1.sm_30.ptx:31 skipping new declaration
GPGPU-Sim PTX: Warning %f255 was declared previous at ispass-2009-LIB.1.sm_30.ptx:31 skipping new declaration
GPGPU-Sim PTX: Warning %f256 was declared previous at ispass-2009-LIB.1.sm_30.ptx:31 skipping new declaration
GPGPU-Sim PTX: Warning %f257 was declared previous at ispass-2009-LIB.1.sm_30.ptx:31 skipping new declaration
GPGPU-Sim PTX: Warning %f258 was declared previous at ispass-2009-LIB.1.sm_30.ptx:31 skipping new declaration
GPGPU-Sim PTX: Warning %f259 was declared previous at ispass-2009-LIB.1.sm_30.ptx:31 skipping new declaration
GPGPU-Sim PTX: Warning %f260 was declared previous at ispass-2009-LIB.1.sm_30.ptx:31 skipping new declaration
GPGPU-Sim PTX: Warning %f261 was declared previous at ispass-2009-LIB.1.sm_30.ptx:31 skipping new declaration
GPGPU-Sim PTX: Warning %f262 was declared previous at ispass-2009-LIB.1.sm_30.ptx:31 skipping new declaration
GPGPU-Sim PTX: Warning %f263 was declared previous at ispass-2009-LIB.1.sm_30.ptx:31 skipping new declaration
GPGPU-Sim PTX: Warning %f264 was declared previous at ispass-2009-LIB.1.sm_30.ptx:31 skipping new declaration
GPGPU-Sim PTX: Warning %f265 was declared previous at ispass-2009-LIB.1.sm_30.ptx:31 skipping new declaration
GPGPU-Sim PTX: Warning %f266 was declared previous at ispass-2009-LIB.1.sm_30.ptx:31 skipping new declaration
GPGPU-Sim PTX: Warning %f267 was declared previous at ispass-2009-LIB.1.sm_30.ptx:31 skipping new declaration
GPGPU-Sim PTX: Warning %f268 was declared previous at ispass-2009-LIB.1.sm_30.ptx:31 skipping new declaration
GPGPU-Sim PTX: Warning %f269 was declared previous at ispass-2009-LIB.1.sm_30.ptx:31 skipping new declaration
GPGPU-Sim PTX: Warning %f270 was declared previous at ispass-2009-LIB.1.sm_30.ptx:31 skipping new declaration
GPGPU-Sim PTX: Warning %f271 was declared previous at ispass-2009-LIB.1.sm_30.ptx:31 skipping new declaration
GPGPU-Sim PTX: Warning %f272 was declared previous at ispass-2009-LIB.1.sm_30.ptx:31 skipping new declaration
GPGPU-Sim PTX: Warning %f273 was declared previous at ispass-2009-LIB.1.sm_30.ptx:31 skipping new declaration
GPGPU-Sim PTX: Warning %f274 was declared previous at ispass-2009-LIB.1.sm_30.ptx:31 skipping new declaration
GPGPU-Sim PTX: Warning %f275 was declared previous at ispass-2009-LIB.1.sm_30.ptx:31 skipping new declaration
GPGPU-Sim PTX: Warning %f276 was declared previous at ispass-2009-LIB.1.sm_30.ptx:31 skipping new declaration
GPGPU-Sim PTX: Warning %f277 was declared previous at ispass-2009-LIB.1.sm_30.ptx:31 skipping new declaration
GPGPU-Sim PTX: Warning %f278 was declared previous at ispass-2009-LIB.1.sm_30.ptx:31 skipping new declaration
GPGPU-Sim PTX: Warning %f279 was declared previous at ispass-2009-LIB.1.sm_30.ptx:31 skipping new declaration
GPGPU-Sim PTX: Warning %f280 was declared previous at ispass-2009-LIB.1.sm_30.ptx:31 skipping new declaration
GPGPU-Sim PTX: Warning %f281 was declared previous at ispass-2009-LIB.1.sm_30.ptx:31 skipping new declaration
GPGPU-Sim PTX: Warning %f282 was declared previous at ispass-2009-LIB.1.sm_30.ptx:31 skipping new declaration
GPGPU-Sim PTX: Warning %f283 was declared previous at ispass-2009-LIB.1.sm_30.ptx:31 skipping new declaration
GPGPU-Sim PTX: Warning %f284 was declared previous at ispass-2009-LIB.1.sm_30.ptx:31 skipping new declaration
GPGPU-Sim PTX: Warning %f285 was declared previous at ispass-2009-LIB.1.sm_30.ptx:31 skipping new declaration
GPGPU-Sim PTX: Warning %f286 was declared previous at ispass-2009-LIB.1.sm_30.ptx:31 skipping new declaration
GPGPU-Sim PTX: Warning %f287 was declared previous at ispass-2009-LIB.1.sm_30.ptx:31 skipping new declaration
GPGPU-Sim PTX: Warning %f288 was declared previous at ispass-2009-LIB.1.sm_30.ptx:31 skipping new declaration
GPGPU-Sim PTX: Warning %f289 was declared previous at ispass-2009-LIB.1.sm_30.ptx:31 skipping new declaration
GPGPU-Sim PTX: Warning %f290 was declared previous at ispass-2009-LIB.1.sm_30.ptx:31 skipping new declaration
GPGPU-Sim PTX: Warning %f291 was declared previous at ispass-2009-LIB.1.sm_30.ptx:31 skipping new declaration
GPGPU-Sim PTX: Warning %f292 was declared previous at ispass-2009-LIB.1.sm_30.ptx:31 skipping new declaration
GPGPU-Sim PTX: Warning %f293 was declared previous at ispass-2009-LIB.1.sm_30.ptx:31 skipping new declaration
GPGPU-Sim PTX: Warning %f294 was declared previous at ispass-2009-LIB.1.sm_30.ptx:31 skipping new declaration
GPGPU-Sim PTX: Warning %f295 was declared previous at ispass-2009-LIB.1.sm_30.ptx:31 skipping new declaration
GPGPU-Sim PTX: Warning %f296 was declared previous at ispass-2009-LIB.1.sm_30.ptx:31 skipping new declaration
GPGPU-Sim PTX: Warning %f297 was declared previous at ispass-2009-LIB.1.sm_30.ptx:31 skipping new declaration
GPGPU-Sim PTX: Warning %f298 was declared previous at ispass-2009-LIB.1.sm_30.ptx:31 skipping new declaration
GPGPU-Sim PTX: Warning %f299 was declared previous at ispass-2009-LIB.1.sm_30.ptx:31 skipping new declaration
GPGPU-Sim PTX: Warning %f300 was declared previous at ispass-2009-LIB.1.sm_30.ptx:31 skipping new declaration
GPGPU-Sim PTX: Warning %f301 was declared previous at ispass-2009-LIB.1.sm_30.ptx:31 skipping new declaration
GPGPU-Sim PTX: Warning %f302 was declared previous at ispass-2009-LIB.1.sm_30.ptx:31 skipping new declaration
GPGPU-Sim PTX: Warning %f303 was declared previous at ispass-2009-LIB.1.sm_30.ptx:31 skipping new declaration
GPGPU-Sim PTX: Warning %f304 was declared previous at ispass-2009-LIB.1.sm_30.ptx:31 skipping new declaration
GPGPU-Sim PTX: Warning %f305 was declared previous at ispass-2009-LIB.1.sm_30.ptx:31 skipping new declaration
GPGPU-Sim PTX: Warning %f306 was declared previous at ispass-2009-LIB.1.sm_30.ptx:31 skipping new declaration
GPGPU-Sim PTX: Warning %f307 was declared previous at ispass-2009-LIB.1.sm_30.ptx:31 skipping new declaration
GPGPU-Sim PTX: Warning %f308 was declared previous at ispass-2009-LIB.1.sm_30.ptx:31 skipping new declaration
GPGPU-Sim PTX: Warning %f309 was declared previous at ispass-2009-LIB.1.sm_30.ptx:31 skipping new declaration
GPGPU-Sim PTX: Warning %f310 was declared previous at ispass-2009-LIB.1.sm_30.ptx:31 skipping new declaration
GPGPU-Sim PTX: Warning %f311 was declared previous at ispass-2009-LIB.1.sm_30.ptx:31 skipping new declaration
GPGPU-Sim PTX: Warning %f312 was declared previous at ispass-2009-LIB.1.sm_30.ptx:31 skipping new declaration
GPGPU-Sim PTX: Warning %f313 was declared previous at ispass-2009-LIB.1.sm_30.ptx:31 skipping new declaration
GPGPU-Sim PTX: Warning %f314 was declared previous at ispass-2009-LIB.1.sm_30.ptx:31 skipping new declaration
GPGPU-Sim PTX: Warning %f315 was declared previous at ispass-2009-LIB.1.sm_30.ptx:31 skipping new declaration
GPGPU-Sim PTX: Warning %f316 was declared previous at ispass-2009-LIB.1.sm_30.ptx:31 skipping new declaration
GPGPU-Sim PTX: Warning %f317 was declared previous at ispass-2009-LIB.1.sm_30.ptx:31 skipping new declaration
GPGPU-Sim PTX: Warning %f318 was declared previous at ispass-2009-LIB.1.sm_30.ptx:31 skipping new declaration
GPGPU-Sim PTX: Warning %f319 was declared previous at ispass-2009-LIB.1.sm_30.ptx:31 skipping new declaration
GPGPU-Sim PTX: Warning %f320 was declared previous at ispass-2009-LIB.1.sm_30.ptx:31 skipping new declaration
GPGPU-Sim PTX: Warning %f321 was declared previous at ispass-2009-LIB.1.sm_30.ptx:31 skipping new declaration
GPGPU-Sim PTX: Warning %f322 was declared previous at ispass-2009-LIB.1.sm_30.ptx:31 skipping new declaration
GPGPU-Sim PTX: Warning %f323 was declared previous at ispass-2009-LIB.1.sm_30.ptx:31 skipping new declaration
GPGPU-Sim PTX: Warning %f324 was declared previous at ispass-2009-LIB.1.sm_30.ptx:31 skipping new declaration
GPGPU-Sim PTX: Warning %f325 was declared previous at ispass-2009-LIB.1.sm_30.ptx:31 skipping new declaration
GPGPU-Sim PTX: Warning %f326 was declared previous at ispass-2009-LIB.1.sm_30.ptx:31 skipping new declaration
GPGPU-Sim PTX: Warning %f327 was declared previous at ispass-2009-LIB.1.sm_30.ptx:31 skipping new declaration
GPGPU-Sim PTX: Warning %f328 was declared previous at ispass-2009-LIB.1.sm_30.ptx:31 skipping new declaration
GPGPU-Sim PTX: Warning %f329 was declared previous at ispass-2009-LIB.1.sm_30.ptx:31 skipping new declaration
GPGPU-Sim PTX: Warning %f330 was declared previous at ispass-2009-LIB.1.sm_30.ptx:31 skipping new declaration
GPGPU-Sim PTX: Warning %f331 was declared previous at ispass-2009-LIB.1.sm_30.ptx:31 skipping new declaration
GPGPU-Sim PTX: Warning %f332 was declared previous at ispass-2009-LIB.1.sm_30.ptx:31 skipping new declaration
GPGPU-Sim PTX: Warning %f333 was declared previous at ispass-2009-LIB.1.sm_30.ptx:31 skipping new declaration
GPGPU-Sim PTX: Warning %f334 was declared previous at ispass-2009-LIB.1.sm_30.ptx:31 skipping new declaration
GPGPU-Sim PTX: Warning %f335 was declared previous at ispass-2009-LIB.1.sm_30.ptx:31 skipping new declaration
GPGPU-Sim PTX: Warning %f336 was declared previous at ispass-2009-LIB.1.sm_30.ptx:31 skipping new declaration
GPGPU-Sim PTX: Warning %f337 was declared previous at ispass-2009-LIB.1.sm_30.ptx:31 skipping new declaration
GPGPU-Sim PTX: Warning %f338 was declared previous at ispass-2009-LIB.1.sm_30.ptx:31 skipping new declaration
GPGPU-Sim PTX: Warning %f339 was declared previous at ispass-2009-LIB.1.sm_30.ptx:31 skipping new declaration
GPGPU-Sim PTX: Warning %f340 was declared previous at ispass-2009-LIB.1.sm_30.ptx:31 skipping new declaration
GPGPU-Sim PTX: Warning %f341 was declared previous at ispass-2009-LIB.1.sm_30.ptx:31 skipping new declaration
GPGPU-Sim PTX: Warning %f342 was declared previous at ispass-2009-LIB.1.sm_30.ptx:31 skipping new declaration
GPGPU-Sim PTX: Warning %f343 was declared previous at ispass-2009-LIB.1.sm_30.ptx:31 skipping new declaration
GPGPU-Sim PTX: Warning %f344 was declared previous at ispass-2009-LIB.1.sm_30.ptx:31 skipping new declaration
GPGPU-Sim PTX: Warning %f345 was declared previous at ispass-2009-LIB.1.sm_30.ptx:31 skipping new declaration
GPGPU-Sim PTX: Warning %f346 was declared previous at ispass-2009-LIB.1.sm_30.ptx:31 skipping new declaration
GPGPU-Sim PTX: Warning %f347 was declared previous at ispass-2009-LIB.1.sm_30.ptx:31 skipping new declaration
GPGPU-Sim PTX: Warning %f348 was declared previous at ispass-2009-LIB.1.sm_30.ptx:31 skipping new declaration
GPGPU-Sim PTX: Warning %f349 was declared previous at ispass-2009-LIB.1.sm_30.ptx:31 skipping new declaration
GPGPU-Sim PTX: Warning %f350 was declared previous at ispass-2009-LIB.1.sm_30.ptx:31 skipping new declaration
GPGPU-Sim PTX: Warning %f351 was declared previous at ispass-2009-LIB.1.sm_30.ptx:31 skipping new declaration
GPGPU-Sim PTX: Warning %f352 was declared previous at ispass-2009-LIB.1.sm_30.ptx:31 skipping new declaration
GPGPU-Sim PTX: Warning %f353 was declared previous at ispass-2009-LIB.1.sm_30.ptx:31 skipping new declaration
GPGPU-Sim PTX: Warning %f354 was declared previous at ispass-2009-LIB.1.sm_30.ptx:31 skipping new declaration
GPGPU-Sim PTX: Warning %f355 was declared previous at ispass-2009-LIB.1.sm_30.ptx:31 skipping new declaration
GPGPU-Sim PTX: Warning %f356 was declared previous at ispass-2009-LIB.1.sm_30.ptx:31 skipping new declaration
GPGPU-Sim PTX: Warning %f357 was declared previous at ispass-2009-LIB.1.sm_30.ptx:31 skipping new declaration
GPGPU-Sim PTX: Warning %f358 was declared previous at ispass-2009-LIB.1.sm_30.ptx:31 skipping new declaration
GPGPU-Sim PTX: Warning %f359 was declared previous at ispass-2009-LIB.1.sm_30.ptx:31 skipping new declaration
GPGPU-Sim PTX: Warning %f360 was declared previous at ispass-2009-LIB.1.sm_30.ptx:31 skipping new declaration
GPGPU-Sim PTX: Warning %f361 was declared previous at ispass-2009-LIB.1.sm_30.ptx:31 skipping new declaration
GPGPU-Sim PTX: Warning %f362 was declared previous at ispass-2009-LIB.1.sm_30.ptx:31 skipping new declaration
GPGPU-Sim PTX: Warning %f363 was declared previous at ispass-2009-LIB.1.sm_30.ptx:31 skipping new declaration
GPGPU-Sim PTX: Warning %f364 was declared previous at ispass-2009-LIB.1.sm_30.ptx:31 skipping new declaration
GPGPU-Sim PTX: Warning %f365 was declared previous at ispass-2009-LIB.1.sm_30.ptx:31 skipping new declaration
GPGPU-Sim PTX: Warning %f366 was declared previous at ispass-2009-LIB.1.sm_30.ptx:31 skipping new declaration
GPGPU-Sim PTX: Warning %f367 was declared previous at ispass-2009-LIB.1.sm_30.ptx:31 skipping new declaration
GPGPU-Sim PTX: Warning %f368 was declared previous at ispass-2009-LIB.1.sm_30.ptx:31 skipping new declaration
GPGPU-Sim PTX: Warning %f369 was declared previous at ispass-2009-LIB.1.sm_30.ptx:31 skipping new declaration
GPGPU-Sim PTX: Warning %f370 was declared previous at ispass-2009-LIB.1.sm_30.ptx:31 skipping new declaration
GPGPU-Sim PTX: Warning %f371 was declared previous at ispass-2009-LIB.1.sm_30.ptx:31 skipping new declaration
GPGPU-Sim PTX: Warning %f372 was declared previous at ispass-2009-LIB.1.sm_30.ptx:31 skipping new declaration
GPGPU-Sim PTX: Warning %f373 was declared previous at ispass-2009-LIB.1.sm_30.ptx:31 skipping new declaration
GPGPU-Sim PTX: Warning %f374 was declared previous at ispass-2009-LIB.1.sm_30.ptx:31 skipping new declaration
GPGPU-Sim PTX: Warning %f375 was declared previous at ispass-2009-LIB.1.sm_30.ptx:31 skipping new declaration
GPGPU-Sim PTX: Warning %f376 was declared previous at ispass-2009-LIB.1.sm_30.ptx:31 skipping new declaration
GPGPU-Sim PTX: Warning %f377 was declared previous at ispass-2009-LIB.1.sm_30.ptx:31 skipping new declaration
GPGPU-Sim PTX: Warning %f378 was declared previous at ispass-2009-LIB.1.sm_30.ptx:31 skipping new declaration
GPGPU-Sim PTX: Warning %f379 was declared previous at ispass-2009-LIB.1.sm_30.ptx:31 skipping new declaration
GPGPU-Sim PTX: Warning %f380 was declared previous at ispass-2009-LIB.1.sm_30.ptx:31 skipping new declaration
GPGPU-Sim PTX: Warning %f381 was declared previous at ispass-2009-LIB.1.sm_30.ptx:31 skipping new declaration
GPGPU-Sim PTX: Warning %f382 was declared previous at ispass-2009-LIB.1.sm_30.ptx:31 skipping new declaration
GPGPU-Sim PTX: Warning %f383 was declared previous at ispass-2009-LIB.1.sm_30.ptx:31 skipping new declaration
GPGPU-Sim PTX: Warning %f384 was declared previous at ispass-2009-LIB.1.sm_30.ptx:31 skipping new declaration
GPGPU-Sim PTX: Warning %f385 was declared previous at ispass-2009-LIB.1.sm_30.ptx:31 skipping new declaration
GPGPU-Sim PTX: Warning %f386 was declared previous at ispass-2009-LIB.1.sm_30.ptx:31 skipping new declaration
GPGPU-Sim PTX: Warning %f387 was declared previous at ispass-2009-LIB.1.sm_30.ptx:31 skipping new declaration
GPGPU-Sim PTX: Warning %f388 was declared previous at ispass-2009-LIB.1.sm_30.ptx:31 skipping new declaration
[...]

------------------------------------------------------------------------

Row_Buffer_Locality = -nan
Row_Buffer_Locality_read = -nan
Row_Buffer_Locality_write = -nan
Bank_Level_Parallism = -nan
Bank_Level_Parallism_Col = -nan
Bank_Level_Parallism_Ready = -nan
write_to_read_ratio_blp_rw_average = -nan
GrpLevelPara = -nan 

BW Util details:
bwutil = 0.000000 
total_CMD = 229211 
util_bw = 0 
Wasted_Col = 0 
Wasted_Row = 0 
Idle = 229211 

BW Util Bottlenecks: 
RCDc_limit = 0 
RCDWRc_limit = 0 
WTRc_limit = 0 
RTWc_limit = 0 
CCDLc_limit = 0 
rwq = 0 
CCDLc_limit_alone = 0 
WTRc_limit_alone = 0 
RTWc_limit_alone = 0 

Commands details: 
total_CMD = 229211 
n_nop = 229211 
Read = 0 
Write = 0 
L2_Alloc = 0 
L2_WB = 0 
n_act = 0 
n_pre = 0 
n_ref = 0 
n_req = 0 
total_req = 0 

Dual Bus Interface Util: 
issued_total_row = 0 
issued_total_col = 0 
Row_Bus_Util =  0.000000 
CoL_Bus_Util = 0.000000 
Either_Row_CoL_Bus_Util = 0.000000 
Issued_on_Two_Bus_Simul_Util = 0.000000 
issued_two_Eff = -nan 
queue_avg = 0.000000 


dram_util_bins: 0 0 0 0 0 0 0 0 0 0
dram_eff_bins: 0 0 0 0 0 0 0 0 0 0
mrqq: max=0 avg=0
Memory Partition 19: 
Cache L2_bank_038:
MSHR contents

Cache L2_bank_039:
MSHR contents

In Dram Latency Queue (total = 0): 
DRAM[19]: 16 bks, busW=16 BL=2 CL=12, tRRD=3 tCCD=1, tRCD=12 tRAS=28 tRP=12 tRC=40
n_cmd=229211 n_nop=229211 n_act=0 n_pre=0 n_ref_event=0 n_req=0 n_rd=0 n_rd_L2_A=0 n_write=0 n_wr_bk=0 bw_util=0
n_activity=0 dram_eff=-nan
bk0: 0a 229211i bk1: 0a 229211i bk2: 0a 229211i bk3: 0a 229211i bk4: 0a 229211i bk5: 0a 229211i bk6: 0a 229211i bk7: 0a 229211i bk8: 0a 229211i bk9: 0a 229211i bk10: 0a 229211i bk11: 0a 229211i bk12: 0a 229211i bk13: 0a 229211i bk14: 0a 229211i bk15: 0a 229211i 

------------------------------------------------------------------------

Row_Buffer_Locality = -nan
Row_Buffer_Locality_read = -nan
Row_Buffer_Locality_write = -nan
Bank_Level_Parallism = -nan
Bank_Level_Parallism_Col = -nan
Bank_Level_Parallism_Ready = -nan
write_to_read_ratio_blp_rw_average = -nan
GrpLevelPara = -nan 

BW Util details:
bwutil = 0.000000 
total_CMD = 229211 
util_bw = 0 
Wasted_Col = 0 
Wasted_Row = 0 
Idle = 229211 

BW Util Bottlenecks: 
RCDc_limit = 0 
RCDWRc_limit = 0 
WTRc_limit = 0 
RTWc_limit = 0 
CCDLc_limit = 0 
rwq = 0 
CCDLc_limit_alone = 0 
WTRc_limit_alone = 0 
RTWc_limit_alone = 0 

Commands details: 
total_CMD = 229211 
n_nop = 229211 
Read = 0 
Write = 0 
L2_Alloc = 0 
L2_WB = 0 
n_act = 0 
n_pre = 0 
n_ref = 0 
n_req = 0 
total_req = 0 

Dual Bus Interface Util: 
issued_total_row = 0 
issued_total_col = 0 
Row_Bus_Util =  0.000000 
CoL_Bus_Util = 0.000000 
Either_Row_CoL_Bus_Util = 0.000000 
Issued_on_Two_Bus_Simul_Util = 0.000000 
issued_two_Eff = -nan 
queue_avg = 0.000000 


dram_util_bins: 0 0 0 0 0 0 0 0 0 0
dram_eff_bins: 0 0 0 0 0 0 0 0 0 0
mrqq: max=0 avg=0
Memory Partition 20: 
Cache L2_bank_040:
MSHR contents

Cache L2_bank_041:
MSHR contents

In Dram Latency Queue (total = 0): 
DRAM[20]: 16 bks, busW=16 BL=2 CL=12, tRRD=3 tCCD=1, tRCD=12 tRAS=28 tRP=12 tRC=40
n_cmd=229211 n_nop=229211 n_act=0 n_pre=0 n_ref_event=0 n_req=0 n_rd=0 n_rd_L2_A=0 n_write=0 n_wr_bk=0 bw_util=0
n_activity=0 dram_eff=-nan
bk0: 0a 229211i bk1: 0a 229211i bk2: 0a 229211i bk3: 0a 229211i bk4: 0a 229211i bk5: 0a 229211i bk6: 0a 229211i bk7: 0a 229211i bk8: 0a 229211i bk9: 0a 229211i bk10: 0a 229211i bk11: 0a 229211i bk12: 0a 229211i bk13: 0a 229211i bk14: 0a 229211i bk15: 0a 229211i 

------------------------------------------------------------------------

Row_Buffer_Locality = -nan
Row_Buffer_Locality_read = -nan
Row_Buffer_Locality_write = -nan
Bank_Level_Parallism = -nan
Bank_Level_Parallism_Col = -nan
Bank_Level_Parallism_Ready = -nan
write_to_read_ratio_blp_rw_average = -nan
GrpLevelPara = -nan 

BW Util details:
bwutil = 0.000000 
total_CMD = 229211 
util_bw = 0 
Wasted_Col = 0 
Wasted_Row = 0 
Idle = 229211 

BW Util Bottlenecks: 
RCDc_limit = 0 
RCDWRc_limit = 0 
WTRc_limit = 0 
RTWc_limit = 0 
CCDLc_limit = 0 
rwq = 0 
CCDLc_limit_alone = 0 
WTRc_limit_alone = 0 
RTWc_limit_alone = 0 

Commands details: 
total_CMD = 229211 
n_nop = 229211 
Read = 0 
Write = 0 
L2_Alloc = 0 
L2_WB = 0 
n_act = 0 
n_pre = 0 
n_ref = 0 
n_req = 0 
total_req = 0 

Dual Bus Interface Util: 
issued_total_row = 0 
issued_total_col = 0 
Row_Bus_Util =  0.000000 
CoL_Bus_Util = 0.000000 
Either_Row_CoL_Bus_Util = 0.000000 
Issued_on_Two_Bus_Simul_Util = 0.000000 
issued_two_Eff = -nan 
queue_avg = 0.000000 


dram_util_bins: 0 0 0 0 0 0 0 0 0 0
dram_eff_bins: 0 0 0 0 0 0 0 0 0 0
mrqq: max=0 avg=0
Memory Partition 21: 
Cache L2_bank_042:
MSHR contents

Cache L2_bank_043:
MSHR contents

In Dram Latency Queue (total = 0): 
DRAM[21]: 16 bks, busW=16 BL=2 CL=12, tRRD=3 tCCD=1, tRCD=12 tRAS=28 tRP=12 tRC=40
n_cmd=229211 n_nop=229211 n_act=0 n_pre=0 n_ref_event=0 n_req=0 n_rd=0 n_rd_L2_A=0 n_write=0 n_wr_bk=0 bw_util=0
n_activity=0 dram_eff=-nan
bk0: 0a 229211i bk1: 0a 229211i bk2: 0a 229211i bk3: 0a 229211i bk4: 0a 229211i bk5: 0a 229211i bk6: 0a 229211i bk7: 0a 229211i bk8: 0a 229211i bk9: 0a 229211i bk10: 0a 229211i bk11: 0a 229211i bk12: 0a 229211i bk13: 0a 229211i bk14: 0a 229211i bk15: 0a 229211i 

------------------------------------------------------------------------

Row_Buffer_Locality = -nan
Row_Buffer_Locality_read = -nan
Row_Buffer_Locality_write = -nan
Bank_Level_Parallism = -nan
Bank_Level_Parallism_Col = -nan
Bank_Level_Parallism_Ready = -nan
write_to_read_ratio_blp_rw_average = -nan
GrpLevelPara = -nan 

BW Util details:
bwutil = 0.000000 
total_CMD = 229211 
util_bw = 0 
Wasted_Col = 0 
Wasted_Row = 0 
Idle = 229211 

BW Util Bottlenecks: 
RCDc_limit = 0 
RCDWRc_limit = 0 
WTRc_limit = 0 
RTWc_limit = 0 
CCDLc_limit = 0 
rwq = 0 
CCDLc_limit_alone = 0 
WTRc_limit_alone = 0 
RTWc_limit_alone = 0 

Commands details: 
total_CMD = 229211 
n_nop = 229211 
Read = 0 
Write = 0 
L2_Alloc = 0 
L2_WB = 0 
n_act = 0 
n_pre = 0 
n_ref = 0 
n_req = 0 
total_req = 0 

Dual Bus Interface Util: 
issued_total_row = 0 
issued_total_col = 0 
Row_Bus_Util =  0.000000 
CoL_Bus_Util = 0.000000 
Either_Row_CoL_Bus_Util = 0.000000 
Issued_on_Two_Bus_Simul_Util = 0.000000 
issued_two_Eff = -nan 
queue_avg = 0.000000 


dram_util_bins: 0 0 0 0 0 0 0 0 0 0
dram_eff_bins: 0 0 0 0 0 0 0 0 0 0
mrqq: max=0 avg=0
Memory Partition 22: 
Cache L2_bank_044:
MSHR contents

Cache L2_bank_045:
MSHR contents

In Dram Latency Queue (total = 0): 
DRAM[22]: 16 bks, busW=16 BL=2 CL=12, tRRD=3 tCCD=1, tRCD=12 tRAS=28 tRP=12 tRC=40
n_cmd=229211 n_nop=229211 n_act=0 n_pre=0 n_ref_event=0 n_req=0 n_rd=0 n_rd_L2_A=0 n_write=0 n_wr_bk=0 bw_util=0
n_activity=0 dram_eff=-nan
bk0: 0a 229211i bk1: 0a 229211i bk2: 0a 229211i bk3: 0a 229211i bk4: 0a 229211i bk5: 0a 229211i bk6: 0a 229211i bk7: 0a 229211i bk8: 0a 229211i bk9: 0a 229211i bk10: 0a 229211i bk11: 0a 229211i bk12: 0a 229211i bk13: 0a 229211i bk14: 0a 229211i bk15: 0a 229211i 

------------------------------------------------------------------------

Row_Buffer_Locality = -nan
Row_Buffer_Locality_read = -nan
Row_Buffer_Locality_write = -nan
Bank_Level_Parallism = -nan
Bank_Level_Parallism_Col = -nan
Bank_Level_Parallism_Ready = -nan
write_to_read_ratio_blp_rw_average = -nan
GrpLevelPara = -nan 

BW Util details:
bwutil = 0.000000 
total_CMD = 229211 
util_bw = 0 
Wasted_Col = 0 
Wasted_Row = 0 
Idle = 229211 

BW Util Bottlenecks: 
RCDc_limit = 0 
RCDWRc_limit = 0 
WTRc_limit = 0 
RTWc_limit = 0 
CCDLc_limit = 0 
rwq = 0 
CCDLc_limit_alone = 0 
WTRc_limit_alone = 0 
RTWc_limit_alone = 0 

Commands details: 
total_CMD = 229211 
n_nop = 229211 
Read = 0 
Write = 0 
L2_Alloc = 0 
L2_WB = 0 
n_act = 0 
n_pre = 0 
n_ref = 0 
n_req = 0 
total_req = 0 

Dual Bus Interface Util: 
issued_total_row = 0 
issued_total_col = 0 
Row_Bus_Util =  0.000000 
CoL_Bus_Util = 0.000000 
Either_Row_CoL_Bus_Util = 0.000000 
Issued_on_Two_Bus_Simul_Util = 0.000000 
issued_two_Eff = -nan 
queue_avg = 0.000000 


dram_util_bins: 0 0 0 0 0 0 0 0 0 0
dram_eff_bins: 0 0 0 0 0 0 0 0 0 0
mrqq: max=0 avg=0
Memory Partition 23: 
Cache L2_bank_046:
MSHR contents

Cache L2_bank_047:
MSHR contents

In Dram Latency Queue (total = 0): 
DRAM[23]: 16 bks, busW=16 BL=2 CL=12, tRRD=3 tCCD=1, tRCD=12 tRAS=28 tRP=12 tRC=40
n_cmd=229211 n_nop=229211 n_act=0 n_pre=0 n_ref_event=0 n_req=0 n_rd=0 n_rd_L2_A=0 n_write=0 n_wr_bk=0 bw_util=0
n_activity=0 dram_eff=-nan
bk0: 0a 229211i bk1: 0a 229211i bk2: 0a 229211i bk3: 0a 229211i bk4: 0a 229211i bk5: 0a 229211i bk6: 0a 229211i bk7: 0a 229211i bk8: 0a 229211i bk9: 0a 229211i bk10: 0a 229211i bk11: 0a 229211i bk12: 0a 229211i bk13: 0a 229211i bk14: 0a 229211i bk15: 0a 229211i 

------------------------------------------------------------------------

Row_Buffer_Locality = -nan
Row_Buffer_Locality_read = -nan
Row_Buffer_Locality_write = -nan
Bank_Level_Parallism = -nan
Bank_Level_Parallism_Col = -nan
Bank_Level_Parallism_Ready = -nan
write_to_read_ratio_blp_rw_average = -nan
GrpLevelPara = -nan 

BW Util details:
bwutil = 0.000000 
total_CMD = 229211 
util_bw = 0 
Wasted_Col = 0 
Wasted_Row = 0 
Idle = 229211 

BW Util Bottlenecks: 
RCDc_limit = 0 
RCDWRc_limit = 0 
WTRc_limit = 0 
RTWc_limit = 0 
CCDLc_limit = 0 
rwq = 0 
CCDLc_limit_alone = 0 
WTRc_limit_alone = 0 
RTWc_limit_alone = 0 

Commands details: 
total_CMD = 229211 
n_nop = 229211 
Read = 0 
Write = 0 
L2_Alloc = 0 
L2_WB = 0 
n_act = 0 
n_pre = 0 
n_ref = 0 
n_req = 0 
total_req = 0 

Dual Bus Interface Util: 
issued_total_row = 0 
issued_total_col = 0 
Row_Bus_Util =  0.000000 
CoL_Bus_Util = 0.000000 
Either_Row_CoL_Bus_Util = 0.000000 
Issued_on_Two_Bus_Simul_Util = 0.000000 
issued_two_Eff = -nan 
queue_avg = 0.000000 


dram_util_bins: 0 0 0 0 0 0 0 0 0 0
dram_eff_bins: 0 0 0 0 0 0 0 0 0 0
mrqq: max=0 avg=0

========= L2 cache stats =========
L2_cache_bank[0]: Access = 4592, Miss = 3264, Miss_rate = 0.711, Pending_hits = 0, Reservation_fails = 0
L2_cache_bank[1]: Access = 3760, Miss = 2544, Miss_rate = 0.677, Pending_hits = 0, Reservation_fails = 0
L2_cache_bank[2]: Access = 4344, Miss = 3156, Miss_rate = 0.727, Pending_hits = 0, Reservation_fails = 0
L2_cache_bank[3]: Access = 3640, Miss = 2440, Miss_rate = 0.670, Pending_hits = 0, Reservation_fails = 0
L2_cache_bank[4]: Access = 4592, Miss = 3264, Miss_rate = 0.711, Pending_hits = 0, Reservation_fails = 0
L2_cache_bank[5]: Access = 3760, Miss = 2536, Miss_rate = 0.674, Pending_hits = 0, Reservation_fails = 0
L2_cache_bank[6]: Access = 4344, Miss = 3088, Miss_rate = 0.711, Pending_hits = 0, Reservation_fails = 0
L2_cache_bank[7]: Access = 3640, Miss = 2464, Miss_rate = 0.677, Pending_hits = 0, Reservation_fails = 0
L2_cache_bank[8]: Access = 4592, Miss = 3268, Miss_rate = 0.712, Pending_hits = 0, Reservation_fails = 0
L2_cache_bank[9]: Access = 3760, Miss = 2524, Miss_rate = 0.671, Pending_hits = 0, Reservation_fails = 0
L2_cache_bank[10]: Access = 4344, Miss = 3136, Miss_rate = 0.722, Pending_hits = 0, Reservation_fails = 0
L2_cache_bank[11]: Access = 3640, Miss = 2472, Miss_rate = 0.679, Pending_hits = 0, Reservation_fails = 0
L2_cache_bank[12]: Access = 4592, Miss = 3276, Miss_rate = 0.713, Pending_hits = 0, Reservation_fails = 0
L2_cache_bank[13]: Access = 3760, Miss = 2516, Miss_rate = 0.669, Pending_hits = 0, Reservation_fails = 0
L2_cache_bank[14]: Access = 4344, Miss = 3088, Miss_rate = 0.711, Pending_hits = 0, Reservation_fails = 0
L2_cache_bank[15]: Access = 3640, Miss = 2480, Miss_rate = 0.681, Pending_hits = 0, Reservation_fails = 0
L2_cache_bank[16]: Access = 2200, Miss = 1312, Miss_rate = 0.596, Pending_hits = 0, Reservation_fails = 0
L2_cache_bank[17]: Access = 1952, Miss = 1296, Miss_rate = 0.664, Pending_hits = 0, Reservation_fails = 0
L2_cache_bank[18]: Access = 2272, Miss = 1352, Miss_rate = 0.595, Pending_hits = 0, Reservation_fails = 0
L2_cache_bank[19]: Access = 1800, Miss = 1192, Miss_rate = 0.662, Pending_hits = 0, Reservation_fails = 0
L2_cache_bank[20]: Access = 2200, Miss = 1312, Miss_rate = 0.596, Pending_hits = 0, Reservation_fails = 0
L2_cache_bank[21]: Access = 1952, Miss = 1296, Miss_rate = 0.664, Pending_hits = 0, Reservation_fails = 0
L2_cache_bank[22]: Access = 2272, Miss = 1352, Miss_rate = 0.595, Pending_hits = 0, Reservation_fails = 0
L2_cache_bank[23]: Access = 1800, Miss = 1192, Miss_rate = 0.662, Pending_hits = 0, Reservation_fails = 0
L2_cache_bank[24]: Access = 2200, Miss = 1312, Miss_rate = 0.596, Pending_hits = 0, Reservation_fails = 0
L2_cache_bank[25]: Access = 1952, Miss = 1296, Miss_rate = 0.664, Pending_hits = 0, Reservation_fails = 0
L2_cache_bank[26]: Access = 2272, Miss = 1352, Miss_rate = 0.595, Pending_hits = 0, Reservation_fails = 0
L2_cache_bank[27]: Access = 1800, Miss = 1192, Miss_rate = 0.662, Pending_hits = 0, Reservation_fails = 0
L2_cache_bank[28]: Access = 2200, Miss = 1312, Miss_rate = 0.596, Pending_hits = 0, Reservation_fails = 0
L2_cache_bank[29]: Access = 1952, Miss = 1296, Miss_rate = 0.664, Pending_hits = 0, Reservation_fails = 0
L2_cache_bank[30]: Access = 2272, Miss = 1352, Miss_rate = 0.595, Pending_hits = 0, Reservation_fails = 0
L2_cache_bank[31]: Access = 1800, Miss = 1192, Miss_rate = 0.662, Pending_hits = 0, Reservation_fails = 0
L2_cache_bank[32]: Access = 2216, Miss = 1320, Miss_rate = 0.596, Pending_hits = 0, Reservation_fails = 0
L2_cache_bank[33]: Access = 1912, Miss = 1272, Miss_rate = 0.665, Pending_hits = 0, Reservation_fails = 0
L2_cache_bank[34]: Access = 2264, Miss = 1344, Miss_rate = 0.594, Pending_hits = 0, Reservation_fails = 0
L2_cache_bank[35]: Access = 1816, Miss = 1200, Miss_rate = 0.661, Pending_hits = 0, Reservation_fails = 0
L2_cache_bank[36]: Access = 2216, Miss = 1320, Miss_rate = 0.596, Pending_hits = 0, Reservation_fails = 0
L2_cache_bank[37]: Access = 1912, Miss = 1272, Miss_rate = 0.665, Pending_hits = 0, Reservation_fails = 0
L2_cache_bank[38]: Access = 2264, Miss = 1344, Miss_rate = 0.594, Pending_hits = 0, Reservation_fails = 0
L2_cache_bank[39]: Access = 1816, Miss = 1200, Miss_rate = 0.661, Pending_hits = 0, Reservation_fails = 0
L2_cache_bank[40]: Access = 2216, Miss = 1320, Miss_rate = 0.596, Pending_hits = 0, Reservation_fails = 0
L2_cache_bank[41]: Access = 1912, Miss = 1272, Miss_rate = 0.665, Pending_hits = 0, Reservation_fails = 0
L2_cache_bank[42]: Access = 2264, Miss = 1344, Miss_rate = 0.594, Pending_hits = 0, Reservation_fails = 0
L2_cache_bank[43]: Access = 1816, Miss = 1200, Miss_rate = 0.661, Pending_hits = 0, Reservation_fails = 0
L2_cache_bank[44]: Access = 2216, Miss = 1320, Miss_rate = 0.596, Pending_hits = 0, Reservation_fails = 0
L2_cache_bank[45]: Access = 1912, Miss = 1272, Miss_rate = 0.665, Pending_hits = 0, Reservation_fails = 0
L2_cache_bank[46]: Access = 2264, Miss = 1344, Miss_rate = 0.594, Pending_hits = 0, Reservation_fails = 0
L2_cache_bank[47]: Access = 1816, Miss = 1200, Miss_rate = 0.661, Pending_hits = 0, Reservation_fails = 0
L2_total_cache_accesses = 131072
L2_total_cache_misses = 86668
L2_total_cache_miss_rate = 0.6612
L2_total_cache_pending_hits = 0
L2_total_cache_reservation_fails = 0
L2_total_cache_breakdown:
	L2_cache_stats_breakdown[GLOBAL_ACC_R][HIT] = 0
	L2_cache_stats_breakdown[GLOBAL_ACC_R][HIT_RESERVED] = 0
	L2_cache_stats_breakdown[GLOBAL_ACC_R][MISS] = 0
	L2_cache_stats_breakdown[GLOBAL_ACC_R][RESERVATION_FAIL] = 0
	L2_cache_stats_breakdown[GLOBAL_ACC_R][SECTOR_MISS] = 0
	L2_cache_stats_breakdown[LOCAL_ACC_R][HIT] = 44404
	L2_cache_stats_breakdown[LOCAL_ACC_R][HIT_RESERVED] = 0
	L2_cache_stats_breakdown[LOCAL_ACC_R][MISS] = 1187
	L2_cache_stats_breakdown[LOCAL_ACC_R][RESERVATION_FAIL] = 0
	L2_cache_stats_breakdown[LOCAL_ACC_R][SECTOR_MISS] = 3561
	L2_cache_stats_breakdown[CONST_ACC_R][HIT] = 0
	L2_cache_stats_breakdown[CONST_ACC_R][HIT_RESERVED] = 0
	L2_cache_stats_breakdown[CONST_ACC_R][MISS] = 0
	L2_cache_stats_breakdown[CONST_ACC_R][RESERVATION_FAIL] = 0
	L2_cache_stats_breakdown[CONST_ACC_R][SECTOR_MISS] = 0
	L2_cache_stats_breakdown[TEXTURE_ACC_R][HIT] = 0
	L2_cache_stats_breakdown[TEXTURE_ACC_R][HIT_RESERVED] = 0
	L2_cache_stats_breakdown[TEXTURE_ACC_R][MISS] = 0
	L2_cache_stats_breakdown[TEXTURE_ACC_R][RESERVATION_FAIL] = 0
	L2_cache_stats_breakdown[TEXTURE_ACC_R][SECTOR_MISS] = 0
	L2_cache_stats_breakdown[GLOBAL_ACC_W][HIT] = 0
	L2_cache_stats_breakdown[GLOBAL_ACC_W][HIT_RESERVED] = 0
	L2_cache_stats_breakdown[GLOBAL_ACC_W][MISS] = 0
	L2_cache_stats_breakdown[GLOBAL_ACC_W][RESERVATION_FAIL] = 0
	L2_cache_stats_breakdown[GLOBAL_ACC_W][SECTOR_MISS] = 0
	L2_cache_stats_breakdown[LOCAL_ACC_W][HIT] = 0
	L2_cache_stats_breakdown[LOCAL_ACC_W][HIT_RESERVED] = 0
	L2_cache_stats_breakdown[LOCAL_ACC_W][MISS] = 20480
	L2_cache_stats_breakdown[LOCAL_ACC_W][RESERVATION_FAIL] = 0
	L2_cache_stats_breakdown[LOCAL_ACC_W][SECTOR_MISS] = 61440
	L2_cache_stats_breakdown[L1_WRBK_ACC][HIT] = 0
	L2_cache_stats_breakdown[L1_WRBK_ACC][HIT_RESERVED] = 0
	L2_cache_stats_breakdown[L1_WRBK_ACC][MISS] = 0
	L2_cache_stats_breakdown[L1_WRBK_ACC][RESERVATION_FAIL] = 0
	L2_cache_stats_breakdown[L1_WRBK_ACC][SECTOR_MISS] = 0
	L2_cache_stats_breakdown[L2_WRBK_ACC][HIT] = 0
	L2_cache_stats_breakdown[L2_WRBK_ACC][HIT_RESERVED] = 0
	L2_cache_stats_breakdown[L2_WRBK_ACC][MISS] = 0
	L2_cache_stats_breakdown[L2_WRBK_ACC][RESERVATION_FAIL] = 0
	L2_cache_stats_breakdown[L2_WRBK_ACC][SECTOR_MISS] = 0
	L2_cache_stats_breakdown[INST_ACC_R][HIT] = 0
	L2_cache_stats_breakdown[INST_ACC_R][HIT_RESERVED] = 0
	L2_cache_stats_breakdown[INST_ACC_R][MISS] = 0
	L2_cache_stats_breakdown[INST_ACC_R][RESERVATION_FAIL] = 0
	L2_cache_stats_breakdown[INST_ACC_R][SECTOR_MISS] = 0
	L2_cache_stats_breakdown[L1_WR_ALLOC_R][HIT] = 0
	L2_cache_stats_breakdown[L1_WR_ALLOC_R][HIT_RESERVED] = 0
	L2_cache_stats_breakdown[L1_WR_ALLOC_R][MISS] = 0
	L2_cache_stats_breakdown[L1_WR_ALLOC_R][RESERVATION_FAIL] = 0
	L2_cache_stats_breakdown[L1_WR_ALLOC_R][SECTOR_MISS] = 0
	L2_cache_stats_breakdown[L2_WR_ALLOC_R][HIT] = 0
	L2_cache_stats_breakdown[L2_WR_ALLOC_R][HIT_RESERVED] = 0
	L2_cache_stats_breakdown[L2_WR_ALLOC_R][MISS] = 0
	L2_cache_stats_breakdown[L2_WR_ALLOC_R][RESERVATION_FAIL] = 0
	L2_cache_stats_breakdown[L2_WR_ALLOC_R][SECTOR_MISS] = 0
	L2_cache_stats_breakdown[LOCAL_ACC_R][TOTAL_ACCESS] = 49152
	L2_cache_stats_breakdown[LOCAL_ACC_W][TOTAL_ACCESS] = 81920
L2_total_cache_reservation_fail_breakdown:
L2_cache_data_port_util = 0.003
L2_cache_fill_port_util = 0.000

icnt_total_pkts_mem_to_simt=131072
icnt_total_pkts_simt_to_mem=131072
LD_mem_lat_dist  0 0 0 0 0 0 0 0 0 0 0 0 0 0 0 0 0 0 0 0 0 0 0 0 0 0 0
ST_mem_lat_dist  0 0 0 0 0 0 0 0 0 0 0 0 0 0 0 0 0 0 0 0 0 0 0 0 0 0 0
----------------------------Interconnect-DETAILS--------------------------------
Req_Network_injected_packets_num = 131072
Req_Network_cycles = 323593
Req_Network_injected_packets_per_cycle =       0.4051 
Req_Network_conflicts_per_cycle =       0.3165
Req_Network_conflicts_per_cycle_util =       3.0047
Req_Bank_Level_Parallism =       3.8457
Req_Network_in_buffer_full_per_cycle =       0.4538
Req_Network_in_buffer_avg_util =       5.5689
Req_Network_out_buffer_full_per_cycle =       0.0000
Req_Network_out_buffer_avg_util =       0.0084

Reply_Network_injected_packets_num = 131072
Reply_Network_cycles = 323593
Reply_Network_injected_packets_per_cycle =        0.4051
Reply_Network_conflicts_per_cycle =        0.1701
Reply_Network_conflicts_per_cycle_util =       1.6130
Reply_Bank_Level_Parallism =       3.8407
Reply_Network_in_buffer_full_per_cycle =       0.0000
Reply_Network_in_buffer_avg_util =       0.0418
Reply_Network_out_buffer_full_per_cycle =       0.0000
Reply_Network_out_buffer_avg_util =       0.0101
----------------------------END-of-Interconnect-DETAILS-------------------------


gpgpu_simulation_time = 0 days, 0 hrs, 3 min, 12 sec (192 sec)
gpgpu_simulation_rate = 520833 (inst/sec)
gpgpu_simulation_rate = 1685 (cycle/sec)
gpgpu_silicon_slowdown = 712166x
GPGPU-Sim: *** simulation thread exiting ***
GPGPU-Sim: ** break due to reaching the maximum cycles (or instructions) **
GPGPU-Sim: *** exit detected ***
