

        *** GPGPU-Sim Simulator Version 4.0.0  [build gpgpu-sim_git-commit-90ec3399763d7c8512cfe7dc193473086c38ca38_modified_0.0] ***


GPGPU-Sim PTX: simulation mode 0 (can change with PTX_SIM_MODE_FUNC environment variable:
               1=functional simulation only, 0=detailed performance simulator)
GPGPU-Sim PTX: overriding embedded ptx with ptx file (PTX_SIM_USE_PTX_FILE is set)
GPGPU-Sim: Configuration options:

-save_embedded_ptx                      0 # saves ptx files embedded in binary as <n>.ptx
-keep                                   0 # keep intermediate files created by GPGPU-Sim when interfacing with external programs
-gpgpu_ptx_save_converted_ptxplus                    0 # Saved converted ptxplus to a file
-gpgpu_occupancy_sm_number                   62 # The SM number to pass to ptxas when getting register usage for computing GPU occupancy. This parameter is required in the config.
-ptx_opcode_latency_int      4,13,4,5,145,32 # Opcode latencies for integers <ADD,MAX,MUL,MAD,DIV,SHFL>Default 1,1,19,25,145,32
-ptx_opcode_latency_fp          4,13,4,4,39 # Opcode latencies for single precision floating points <ADD,MAX,MUL,MAD,DIV>Default 1,1,1,1,30
-ptx_opcode_latency_dp         8,19,8,8,330 # Opcode latencies for double precision floating points <ADD,MAX,MUL,MAD,DIV>Default 8,8,8,8,335
-ptx_opcode_latency_sfu                   20 # Opcode latencies for SFU instructionsDefault 8
-ptx_opcode_latency_tesnor                   64 # Opcode latencies for Tensor instructionsDefault 64
-ptx_opcode_initiation_int          1,1,1,1,4,4 # Opcode initiation intervals for integers <ADD,MAX,MUL,MAD,DIV,SHFL>Default 1,1,4,4,32,4
-ptx_opcode_initiation_fp            1,2,1,1,4 # Opcode initiation intervals for single precision floating points <ADD,MAX,MUL,MAD,DIV>Default 1,1,1,1,5
-ptx_opcode_initiation_dp          8,8,8,8,130 # Opcode initiation intervals for double precision floating points <ADD,MAX,MUL,MAD,DIV>Default 8,8,8,8,130
-ptx_opcode_initiation_sfu                    4 # Opcode initiation intervals for sfu instructionsDefault 8
-ptx_opcode_initiation_tensor                   64 # Opcode initiation intervals for tensor instructionsDefault 64
-cdp_latency         7200,8000,100,12000,1600 # CDP API latency <cudaStreamCreateWithFlags, cudaGetParameterBufferV2_init_perWarp, cudaGetParameterBufferV2_perKernel, cudaLaunchDeviceV2_init_perWarp, cudaLaunchDevicV2_perKernel>Default 7200,8000,100,12000,1600
-network_mode                           1 # Interconnection network mode
-inter_config_file   config_pascal_islip.icnt # Interconnection network config file
-icnt_in_buffer_limit                   64 # in_buffer_limit
-icnt_out_buffer_limit                   64 # out_buffer_limit
-icnt_subnets                           2 # subnets
-icnt_arbiter_algo                      1 # arbiter_algo
-icnt_verbose                           0 # inct_verbose
-icnt_grant_cycles                      1 # grant_cycles
-gpgpu_ptx_use_cuobjdump                    1 # Use cuobjdump to extract ptx and sass from binaries
-gpgpu_experimental_lib_support                    0 # Try to extract code from cuda libraries [Broken because of unknown cudaGetExportTable]
-checkpoint_option                      0 #  checkpointing flag (0 = no checkpoint)
-checkpoint_kernel                      1 #  checkpointing during execution of which kernel (1- 1st kernel)
-checkpoint_CTA                         0 #  checkpointing after # of CTA (< less than total CTA)
-resume_option                          0 #  resume flag (0 = no resume)
-resume_kernel                          0 #  Resume from which kernel (1= 1st kernel)
-resume_CTA                             0 #  resume from which CTA 
-checkpoint_CTA_t                       0 #  resume from which CTA 
-checkpoint_insn_Y                      0 #  resume from which CTA 
-gpgpu_ptx_convert_to_ptxplus                    0 # Convert SASS (native ISA) to ptxplus and run ptxplus
-gpgpu_ptx_force_max_capability                   61 # Force maximum compute capability
-gpgpu_ptx_inst_debug_to_file                    0 # Dump executed instructions' debug information to file
-gpgpu_ptx_inst_debug_file       inst_debug.txt # Executed instructions' debug output file
-gpgpu_ptx_inst_debug_thread_uid                    1 # Thread UID for executed instructions' debug output
-gpgpu_simd_model                       1 # 1 = post-dominator
-gpgpu_shader_core_pipeline              2048:32 # shader core pipeline config, i.e., {<nthread>:<warpsize>}
-gpgpu_tex_cache:l1  N:16:128:24,L:R:m:N:L,T:128:4,128:2 # per-shader L1 texture cache  (READ-ONLY) config  {<nsets>:<bsize>:<assoc>,<rep>:<wr>:<alloc>:<wr_alloc>,<mshr>:<N>:<merge>,<mq>:<rf>}
-gpgpu_const_cache:l1 N:128:64:2,L:R:f:N:L,S:2:64,4 # per-shader L1 constant memory cache  (READ-ONLY) config  {<nsets>:<bsize>:<assoc>,<rep>:<wr>:<alloc>:<wr_alloc>,<mshr>:<N>:<merge>,<mq>} 
-gpgpu_cache:il1     N:8:128:4,L:R:f:N:L,S:2:48,4 # shader L1 instruction cache config  {<nsets>:<bsize>:<assoc>,<rep>:<wr>:<alloc>:<wr_alloc>,<mshr>:<N>:<merge>,<mq>} 
-gpgpu_cache:dl1     S:4:128:96,L:L:s:N:L,A:256:8,16:0,32 # per-shader L1 data cache config  {<nsets>:<bsize>:<assoc>,<rep>:<wr>:<alloc>:<wr_alloc>,<mshr>:<N>:<merge>,<mq> | none}
-gpgpu_l1_banks                         2 # The number of L1 cache banks
-gpgpu_l1_banks_byte_interleaving                   32 # l1 banks byte interleaving granularity
-gpgpu_l1_banks_hashing_function                    0 # l1 banks hashing function
-gpgpu_l1_latency                      82 # L1 Hit Latency
-gpgpu_smem_latency                    24 # smem Latency
-gpgpu_cache:dl1PrefL1 S:4:128:96,L:L:s:N:L,A:256:8,16:0,32 # per-shader L1 data cache config  {<nsets>:<bsize>:<assoc>,<rep>:<wr>:<alloc>:<wr_alloc>,<mshr>:<N>:<merge>,<mq> | none}
-gpgpu_cache:dl1PrefShared S:4:128:96,L:L:s:N:L,A:256:8,16:0,32 # per-shader L1 data cache config  {<nsets>:<bsize>:<assoc>,<rep>:<wr>:<alloc>:<wr_alloc>,<mshr>:<N>:<merge>,<mq> | none}
-gpgpu_gmem_skip_L1D                    1 # global memory access skip L1D cache (implements -Xptxas -dlcm=cg, default=no skip)
-gpgpu_perfect_mem                      0 # enable perfect memory mode (no cache miss)
-n_regfile_gating_group                    4 # group of lanes that should be read/written together)
-gpgpu_clock_gated_reg_file                    0 # enable clock gated reg file for power calculations
-gpgpu_clock_gated_lanes                    0 # enable clock gated lanes for power calculations
-gpgpu_shader_registers                65536 # Number of registers per shader core. Limits number of concurrent CTAs. (default 8192)
-gpgpu_registers_per_block                 8192 # Maximum number of registers per CTA. (default 8192)
-gpgpu_ignore_resources_limitation                    1 # gpgpu_ignore_resources_limitation (default 0)
-gpgpu_shader_cta                      32 # Maximum number of concurrent CTAs in shader (default 8)
-gpgpu_num_cta_barriers                   16 # Maximum number of named barriers per CTA (default 16)
-gpgpu_n_clusters                      28 # number of processing clusters
-gpgpu_n_cores_per_cluster                    1 # number of simd cores per cluster
-gpgpu_n_cluster_ejection_buffer_size                   32 # number of packets in ejection buffer
-gpgpu_n_ldst_response_buffer_size                    2 # number of response packets in ld/st unit ejection buffer
-gpgpu_shmem_per_block                49152 # Size of shared memory per thread block or CTA (default 48kB)
-gpgpu_shmem_size                   98304 # Size of shared memory per shader core (default 16kB)
-gpgpu_adaptive_cache_config                    0 # adaptive_cache_config
-gpgpu_shmem_sizeDefault                98304 # Size of shared memory per shader core (default 16kB)
-gpgpu_shmem_size_PrefL1                98304 # Size of shared memory per shader core (default 16kB)
-gpgpu_shmem_size_PrefShared                98304 # Size of shared memory per shader core (default 16kB)
-gpgpu_shmem_num_banks                   32 # Number of banks in the shared memory in each shader core (default 16)
-gpgpu_shmem_limited_broadcast                    0 # Limit shared memory to do one broadcast per cycle (default on)
-gpgpu_shmem_warp_parts                    1 # Number of portions a warp is divided into for shared memory bank conflict check 
-gpgpu_mem_unit_ports                    1 # The number of memory transactions allowed per core cycle
-gpgpu_shmem_warp_parts                    1 # Number of portions a warp is divided into for shared memory bank conflict check 
-gpgpu_warpdistro_shader                   -1 # Specify which shader core to collect the warp size distribution from
-gpgpu_warp_issue_shader                    0 # Specify which shader core to collect the warp issue distribution from
-gpgpu_local_mem_map                    1 # Mapping from local memory space address to simulated GPU physical address space (default = enabled)
-gpgpu_num_reg_banks                   16 # Number of register banks (default = 8)
-gpgpu_reg_bank_use_warp_id                    0 # Use warp ID in mapping registers to banks (default = off)
-gpgpu_sub_core_model                    1 # Sub Core Volta/Pascal model (default = off)
-gpgpu_enable_specialized_operand_collector                    0 # enable_specialized_operand_collector
-gpgpu_operand_collector_num_units_sp                    4 # number of collector units (default = 4)
-gpgpu_operand_collector_num_units_dp                    0 # number of collector units (default = 0)
-gpgpu_operand_collector_num_units_sfu                    4 # number of collector units (default = 4)
-gpgpu_operand_collector_num_units_int                    0 # number of collector units (default = 0)
-gpgpu_operand_collector_num_units_tensor_core                    4 # number of collector units (default = 4)
-gpgpu_operand_collector_num_units_mem                    2 # number of collector units (default = 2)
-gpgpu_operand_collector_num_units_gen                    8 # number of collector units (default = 0)
-gpgpu_operand_collector_num_in_ports_sp                    1 # number of collector unit in ports (default = 1)
-gpgpu_operand_collector_num_in_ports_dp                    0 # number of collector unit in ports (default = 0)
-gpgpu_operand_collector_num_in_ports_sfu                    1 # number of collector unit in ports (default = 1)
-gpgpu_operand_collector_num_in_ports_int                    0 # number of collector unit in ports (default = 0)
-gpgpu_operand_collector_num_in_ports_tensor_core                    1 # number of collector unit in ports (default = 1)
-gpgpu_operand_collector_num_in_ports_mem                    1 # number of collector unit in ports (default = 1)
-gpgpu_operand_collector_num_in_ports_gen                    8 # number of collector unit in ports (default = 0)
-gpgpu_operand_collector_num_out_ports_sp                    1 # number of collector unit in ports (default = 1)
-gpgpu_operand_collector_num_out_ports_dp                    0 # number of collector unit in ports (default = 0)
-gpgpu_operand_collector_num_out_ports_sfu                    1 # number of collector unit in ports (default = 1)
-gpgpu_operand_collector_num_out_ports_int                    0 # number of collector unit in ports (default = 0)
-gpgpu_operand_collector_num_out_ports_tensor_core                    1 # number of collector unit in ports (default = 1)
-gpgpu_operand_collector_num_out_ports_mem                    1 # number of collector unit in ports (default = 1)
-gpgpu_operand_collector_num_out_ports_gen                    8 # number of collector unit in ports (default = 0)
-gpgpu_coalesce_arch                   61 # Coalescing arch (GT200 = 13, Fermi = 20)
-gpgpu_num_sched_per_core                    4 # Number of warp schedulers per core
-gpgpu_max_insn_issue_per_warp                    2 # Max number of instructions that can be issued per warp in one cycle by scheduler (either 1 or 2)
-gpgpu_dual_issue_diff_exec_units                    1 # should dual issue use two different execution unit resources (Default = 1)
-gpgpu_simt_core_sim_order                    1 # Select the simulation order of cores in a cluster (0=Fix, 1=Round-Robin)
-gpgpu_pipeline_widths 4,0,0,4,4,4,0,0,4,4,8 # Pipeline widths ID_OC_SP,ID_OC_DP,ID_OC_INT,ID_OC_SFU,ID_OC_MEM,OC_EX_SP,OC_EX_DP,OC_EX_INT,OC_EX_SFU,OC_EX_MEM,EX_WB,ID_OC_TENSOR_CORE,OC_EX_TENSOR_CORE
-gpgpu_tensor_core_avail                    0 # Tensor Core Available (default=0)
-gpgpu_num_sp_units                     4 # Number of SP units (default=1)
-gpgpu_num_dp_units                     0 # Number of DP units (default=0)
-gpgpu_num_int_units                    0 # Number of INT units (default=0)
-gpgpu_num_sfu_units                    4 # Number of SF units (default=1)
-gpgpu_num_tensor_core_units                    0 # Number of tensor_core units (default=1)
-gpgpu_num_mem_units                    1 # Number if ldst units (default=1) WARNING: not hooked up to anything
-gpgpu_scheduler                      gto # Scheduler configuration: < lrr | gto | two_level_active > If two_level_active:<num_active_warps>:<inner_prioritization>:<outer_prioritization>For complete list of prioritization values see shader.h enum scheduler_prioritization_typeDefault: gto
-gpgpu_concurrent_kernel_sm                    0 # Support concurrent kernels on a SM (default = disabled)
-gpgpu_perfect_inst_const_cache                    1 # perfect inst and const cache mode, so all inst and const hits in the cache(default = disabled)
-gpgpu_inst_fetch_throughput                    8 # the number of fetched intruction per warp each cycle
-gpgpu_reg_file_port_throughput                    2 # the number ports of the register file
-specialized_unit_1         0,4,4,4,4,BRA # specialized unit config {<enabled>,<num_units>:<latency>:<initiation>,<ID_OC_SPEC>:<OC_EX_SPEC>,<NAME>}
-specialized_unit_2         0,4,4,4,4,BRA # specialized unit config {<enabled>,<num_units>:<latency>:<initiation>,<ID_OC_SPEC>:<OC_EX_SPEC>,<NAME>}
-specialized_unit_3         0,4,4,4,4,BRA # specialized unit config {<enabled>,<num_units>:<latency>:<initiation>,<ID_OC_SPEC>:<OC_EX_SPEC>,<NAME>}
-specialized_unit_4         0,4,4,4,4,BRA # specialized unit config {<enabled>,<num_units>:<latency>:<initiation>,<ID_OC_SPEC>:<OC_EX_SPEC>,<NAME>}
-specialized_unit_5         0,4,4,4,4,BRA # specialized unit config {<enabled>,<num_units>:<latency>:<initiation>,<ID_OC_SPEC>:<OC_EX_SPEC>,<NAME>}
-specialized_unit_6         0,4,4,4,4,BRA # specialized unit config {<enabled>,<num_units>:<latency>:<initiation>,<ID_OC_SPEC>:<OC_EX_SPEC>,<NAME>}
-specialized_unit_7         0,4,4,4,4,BRA # specialized unit config {<enabled>,<num_units>:<latency>:<initiation>,<ID_OC_SPEC>:<OC_EX_SPEC>,<NAME>}
-specialized_unit_8         0,4,4,4,4,BRA # specialized unit config {<enabled>,<num_units>:<latency>:<initiation>,<ID_OC_SPEC>:<OC_EX_SPEC>,<NAME>}
-gpgpu_perf_sim_memcpy                    1 # Fill the L2 cache on memcpy
-gpgpu_simple_dram_model                    0 # simple_dram_model with fixed latency and BW
-gpgpu_dram_scheduler                    1 # 0 = fifo, 1 = FR-FCFS (defaul)
-gpgpu_dram_partition_queues          32:32:32:32 # i2$:$2d:d2$:$2i
-l2_ideal                               0 # Use a ideal L2 cache that always hit
-gpgpu_cache:dl2     S:64:128:16,L:B:m:L:P,A:256:64,16:0,32 # unified banked L2 data cache config  {<nsets>:<bsize>:<assoc>,<rep>:<wr>:<alloc>:<wr_alloc>,<mshr>:<N>:<merge>,<mq>}
-gpgpu_cache:dl2_texture_only                    0 # L2 cache used for texture only
-gpgpu_n_mem                           12 # number of memory modules (e.g. memory controllers) in gpu
-gpgpu_n_sub_partition_per_mchannel                    2 # number of memory subpartition in each memory module
-gpgpu_n_mem_per_ctrlr                    1 # number of memory chips per memory controller
-gpgpu_memlatency_stat                   14 # track and display latency statistics 0x2 enables MC, 0x4 enables queue logs
-gpgpu_frfcfs_dram_sched_queue_size                   64 # 0 = unlimited (default); # entries per chip
-gpgpu_dram_return_queue_size                   64 # 0 = unlimited (default); # entries per chip
-gpgpu_dram_buswidth                    4 # default = 4 bytes (8 bytes per cycle at DDR)
-gpgpu_dram_burst_length                    8 # Burst length of each DRAM request (default = 4 data bus cycle)
-dram_data_command_freq_ratio                    4 # Frequency ratio between DRAM data bus and command bus (default = 2 times, i.e. DDR)
-gpgpu_dram_timing_opt nbk=16:CCD=2:RRD=8:RCD=16:RAS=37:RP=16:RC=52: CL=16:WL=6:CDLR=7:WR=16:nbkgrp=4:CCDL=4:RTPL=3 # DRAM timing parameters = {nbk:tCCD:tRRD:tRCD:tRAS:tRP:tRC:CL:WL:tCDLR:tWR:nbkgrp:tCCDL:tRTPL}
-gpgpu_l2_rop_latency                  120 # ROP queue latency (default 85)
-dram_latency                         100 # DRAM latency (default 30)
-dram_dual_bus_interface                    0 # dual_bus_interface (default = 0) 
-dram_bnk_indexing_policy                    0 # dram_bnk_indexing_policy (0 = normal indexing, 1 = Xoring with the higher bits) (Default = 0)
-dram_bnkgrp_indexing_policy                    1 # dram_bnkgrp_indexing_policy (0 = take higher bits, 1 = take lower bits) (Default = 0)
-dram_seperate_write_queue_enable                    0 # Seperate_Write_Queue_Enable
-dram_write_queue_size             32:28:16 # Write_Queue_Size
-dram_elimnate_rw_turnaround                    0 # elimnate_rw_turnaround i.e set tWTR and tRTW = 0
-icnt_flit_size                        40 # icnt_flit_size
-gpgpu_mem_addr_mapping dramid@8;00000000.00000000.00000000.00000000.0000RRRR.RRRRRRRR.RBBBCCCC.BCCSSSSS # mapping memory address to dram model {dramid@<start bit>;<memory address map>}
-gpgpu_mem_addr_test                    0 # run sweep test to check address mapping for aliased address
-gpgpu_mem_address_mask                    1 # 0 = old addressing mask, 1 = new addressing mask, 2 = new add. mask + flipped bank sel and chip sel bits
-gpgpu_memory_partition_indexing                    4 # 0 = no indexing, 1 = bitwise xoring, 2 = IPoly, 3 = custom indexing
-gpuwattch_xml_file         gpuwattch.xml # GPUWattch XML file
-power_simulation_enabled                    0 # Turn on power simulator (1=On, 0=Off)
-power_per_cycle_dump                    0 # Dump detailed power output each cycle
-power_trace_enabled                    0 # produce a file for the power trace (1=On, 0=Off)
-power_trace_zlevel                     6 # Compression level of the power trace output log (0=no comp, 9=highest)
-steady_power_levels_enabled                    0 # produce a file for the steady power levels (1=On, 0=Off)
-steady_state_definition                  8:4 # allowed deviation:number of samples
-gpgpu_max_cycle                        0 # terminates gpu simulation early (0 = no limit)
-gpgpu_max_insn                 100000000 # terminates gpu simulation early (0 = no limit)
-gpgpu_max_cta                          0 # terminates gpu simulation early (0 = no limit)
-gpgpu_max_completed_cta                    0 # terminates gpu simulation early (0 = no limit)
-gpgpu_runtime_stat                   500 # display runtime statistics such as dram utilization {<freq>:<flag>}
-liveness_message_freq                    1 # Minimum number of seconds between simulation liveness messages (0 = always print)
-gpgpu_compute_capability_major                    6 # Major compute capability version number
-gpgpu_compute_capability_minor                    1 # Minor compute capability version number
-gpgpu_flush_l1_cache                    1 # Flush L1 cache at the end of each kernel call
-gpgpu_flush_l2_cache                    0 # Flush L2 cache at the end of each kernel call
-gpgpu_deadlock_detect                    1 # Stop the simulation at deadlock (1=on (default), 0=off)
-gpgpu_ptx_instruction_classification                    0 # if enabled will classify ptx instruction types per kernel (Max 255 kernels now)
-gpgpu_ptx_sim_mode                     0 # Select between Performance (default) or Functional simulation (1)
-gpgpu_clock_domains 1417.0:1417.0:1417.0:2500.0 # Clock Domain Frequencies in MhZ {<Core Clock>:<ICNT Clock>:<L2 Clock>:<DRAM Clock>}
-gpgpu_max_concurrent_kernel                    8 # maximum kernels that can run concurrently on GPU
-gpgpu_cflog_interval                    0 # Interval between each snapshot in control flow logger
-visualizer_enabled                     0 # Turn on visualizer output (1=On, 0=Off)
-visualizer_outputfile                 NULL # Specifies the output log file for visualizer
-visualizer_zlevel                      6 # Compression level of the visualizer output log (0=no comp, 9=highest)
-gpgpu_stack_size_limit                 1024 # GPU thread stack size
-gpgpu_heap_size_limit              8388608 # GPU malloc heap size 
-gpgpu_runtime_sync_depth_limit                    2 # GPU device runtime synchronize depth
-gpgpu_runtime_pending_launch_count_limit                 2048 # GPU device runtime pending launch count
-trace_enabled                          0 # Turn on traces
-trace_components                    none # comma seperated list of traces to enable. Complete list found in trace_streams.tup. Default none
-trace_sampling_core                    0 # The core which is printed using CORE_DPRINTF. Default 0
-trace_sampling_memory_partition                   -1 # The memory partition which is printed using MEMPART_DPRINTF. Default -1 (i.e. all)
-enable_ptx_file_line_stats                    1 # Turn on PTX source line statistic profiling. (1 = On)
-ptx_line_stats_filename gpgpu_inst_stats.txt # Output file for PTX source line statistics.
-gpgpu_kernel_launch_latency                 5000 # Kernel launch latency in cycles. Default: 0
-gpgpu_cdp_enabled                      0 # Turn on CDP
-gpgpu_TB_launch_latency                    0 # thread block launch latency in cycles. Default: 0
DRAM Timing Options:
nbk                                    16 # number of banks
CCD                                     2 # column to column delay
RRD                                     8 # minimal delay between activation of rows in different banks
RCD                                    16 # row to column delay
RAS                                    37 # time needed to activate row
RP                                     16 # time needed to precharge (deactivate) row
RC                                     52 # row cycle time
CDLR                                    7 # switching from write to read (changes tWTR)
WR                                     16 # last data-in to row precharge
CL                                     16 # CAS latency
WL                                      6 # Write latency
nbkgrp                                  4 # number of bank groups
CCDL                                    4 # column to column delay between accesses to different bank groups
RTPL                                    3 # read to precharge delay between accesses to different bank groups
Total number of memory sub partition = 24
addr_dec_mask[CHIP]  = 0000000000000000 	high:64 low:0
addr_dec_mask[BK]    = 0000000000007080 	high:15 low:7
addr_dec_mask[ROW]   = 000000000fff8000 	high:28 low:15
addr_dec_mask[COL]   = 0000000000000f7f 	high:12 low:0
addr_dec_mask[BURST] = 000000000000001f 	high:5 low:0
sub_partition_id_mask = 0000000000000080
GPGPU-Sim uArch: clock freqs: 1417000000.000000:1417000000.000000:1417000000.000000:2500000000.000000
GPGPU-Sim uArch: clock periods: 0.00000000070571630205:0.00000000070571630205:0.00000000070571630205:0.00000000040000000000
*** Initializing Memory Statistics ***
GPGPU-Sim uArch: interconnect node map (shaderID+MemID to icntID)
GPGPU-Sim uArch: Memory nodes ID start from index: 28
GPGPU-Sim uArch:    0   1   2   3   4   5   6
GPGPU-Sim uArch:    7   8   9  10  11  12  13
GPGPU-Sim uArch:   14  15  16  17  18  19  20
GPGPU-Sim uArch:   21  22  23  24  25  26  27
GPGPU-Sim uArch:   28  29  30  31  32  33  34
GPGPU-Sim uArch:   35  36  37  38  39  40  41
GPGPU-Sim uArch:   42  43  44  45  46  47  48
GPGPU-Sim uArch:   49  50  51
GPGPU-Sim uArch: interconnect node reverse map (icntID to shaderID+MemID)
GPGPU-Sim uArch: Memory nodes start from ID: 28
GPGPU-Sim uArch:    0   1   2   3   4   5   6
GPGPU-Sim uArch:    7   8   9  10  11  12  13
GPGPU-Sim uArch:   14  15  16  17  18  19  20
GPGPU-Sim uArch:   21  22  23  24  25  26  27
GPGPU-Sim uArch:   28  29  30  31  32  33  34
GPGPU-Sim uArch:   35  36  37  38  39  40  41
GPGPU-Sim uArch:   42  43  44  45  46  47  48
GPGPU-Sim uArch:   49  50  51
332b2aecc87cc02a87d30f210e438b23  /root/test/LPS/ispass-2009-LPS
Extracting PTX file and ptxas options    1: ispass-2009-LPS.1.sm_30.ptx -arch=sm_30
Extracting PTX file and ptxas options    2: ispass-2009-LPS.2.sm_35.ptx -arch=sm_35
Extracting PTX file and ptxas options    3: ispass-2009-LPS.3.sm_50.ptx -arch=sm_50
Extracting PTX file and ptxas options    4: ispass-2009-LPS.4.sm_60.ptx -arch=sm_60
Extracting PTX file and ptxas options    5: ispass-2009-LPS.5.sm_62.ptx -arch=sm_62
GPGPU-Sim uArch: performance model initialization complete.
self exe links to: /root/test/LPS/ispass-2009-LPS
self exe links to: /root/test/LPS/ispass-2009-LPS
10.1
GPGPU-Sim PTX: __cudaRegisterFatBinary, fat_cubin_handle = 1, filename=default
self exe links to: /root/test/LPS/ispass-2009-LPS
Running md5sum using "md5sum /root/test/LPS/ispass-2009-LPS "
self exe links to: /root/test/LPS/ispass-2009-LPS
Extracting specific PTX file named ispass-2009-LPS.1.sm_30.ptx 
Extracting specific PTX file named ispass-2009-LPS.2.sm_35.ptx 
Extracting specific PTX file named ispass-2009-LPS.3.sm_50.ptx 
Extracting specific PTX file named ispass-2009-LPS.4.sm_60.ptx 
Extracting specific PTX file named ispass-2009-LPS.5.sm_62.ptx 
GPGPU-Sim PTX: __cudaRegisterFunction _Z13GPU_laplace3diiiiPfS_ : hostFun 0x0x4046d0, fat_cubin_handle = 1
GPGPU-Sim PTX: Parsing ispass-2009-LPS.1.sm_30.ptx
GPGPU-Sim PTX: allocating shared region for "_ZZ13GPU_laplace3diiiiPfS_E2u1" from 0x0 to 0x990 (shared memory space)
GPGPU-Sim PTX: instruction assembly for function '_Z13GPU_laplace3diiiiPfS_'...   done.
GPGPU-Sim PTX: finished parsing EMBEDDED .ptx file ispass-2009-LPS.1.sm_30.ptx
GPGPU-Sim PTX: Parsing ispass-2009-LPS.2.sm_35.ptx
GPGPU-Sim PTX: Warning %p0 was declared previous at ispass-2009-LPS.1.sm_30.ptx:25 skipping new declaration
GPGPU-Sim PTX: Warning %p1 was declared previous at ispass-2009-LPS.1.sm_30.ptx:25 skipping new declaration
GPGPU-Sim PTX: Warning %p2 was declared previous at ispass-2009-LPS.1.sm_30.ptx:25 skipping new declaration
GPGPU-Sim PTX: Warning %p3 was declared previous at ispass-2009-LPS.1.sm_30.ptx:25 skipping new declaration
GPGPU-Sim PTX: Warning %p4 was declared previous at ispass-2009-LPS.1.sm_30.ptx:25 skipping new declaration
GPGPU-Sim PTX: Warning %p5 was declared previous at ispass-2009-LPS.1.sm_30.ptx:25 skipping new declaration
GPGPU-Sim PTX: Warning %p6 was declared previous at ispass-2009-LPS.1.sm_30.ptx:25 skipping new declaration
GPGPU-Sim PTX: Warning %p7 was declared previous at ispass-2009-LPS.1.sm_30.ptx:25 skipping new declaration
GPGPU-Sim PTX: Warning %p8 was declared previous at ispass-2009-LPS.1.sm_30.ptx:25 skipping new declaration
GPGPU-Sim PTX: Warning %p9 was declared previous at ispass-2009-LPS.1.sm_30.ptx:25 skipping new declaration
GPGPU-Sim PTX: Warning %p10 was declared previous at ispass-2009-LPS.1.sm_30.ptx:25 skipping new declaration
GPGPU-Sim PTX: Warning %p11 was declared previous at ispass-2009-LPS.1.sm_30.ptx:25 skipping new declaration
GPGPU-Sim PTX: Warning %p12 was declared previous at ispass-2009-LPS.1.sm_30.ptx:25 skipping new declaration
GPGPU-Sim PTX: Warning %p13 was declared previous at ispass-2009-LPS.1.sm_30.ptx:25 skipping new declaration
GPGPU-Sim PTX: Warning %p14 was declared previous at ispass-2009-LPS.1.sm_30.ptx:25 skipping new declaration
GPGPU-Sim PTX: Warning %p15 was declared previous at ispass-2009-LPS.1.sm_30.ptx:25 skipping new declaration
GPGPU-Sim PTX: Warning %p16 was declared previous at ispass-2009-LPS.1.sm_30.ptx:25 skipping new declaration
GPGPU-Sim PTX: Warning %p17 was declared previous at ispass-2009-LPS.1.sm_30.ptx:25 skipping new declaration
GPGPU-Sim PTX: Warning %p18 was declared previous at ispass-2009-LPS.1.sm_30.ptx:25 skipping new declaration
GPGPU-Sim PTX: Warning %p19 was declared previous at ispass-2009-LPS.1.sm_30.ptx:25 skipping new declaration
GPGPU-Sim PTX: Warning %p20 was declared previous at ispass-2009-LPS.1.sm_30.ptx:25 skipping new declaration
GPGPU-Sim PTX: Warning %p21 was declared previous at ispass-2009-LPS.1.sm_30.ptx:25 skipping new declaration
GPGPU-Sim PTX: Warning %p22 was declared previous at ispass-2009-LPS.1.sm_30.ptx:25 skipping new declaration
GPGPU-Sim PTX: Warning %p23 was declared previous at ispass-2009-LPS.1.sm_30.ptx:25 skipping new declaration
GPGPU-Sim PTX: Warning %p24 was declared previous at ispass-2009-LPS.1.sm_30.ptx:25 skipping new declaration
GPGPU-Sim PTX: Warning %p25 was declared previous at ispass-2009-LPS.1.sm_30.ptx:25 skipping new declaration
GPGPU-Sim PTX: Warning %p26 was declared previous at ispass-2009-LPS.1.sm_30.ptx:25 skipping new declaration
GPGPU-Sim PTX: Warning %p27 was declared previous at ispass-2009-LPS.1.sm_30.ptx:25 skipping new declaration
GPGPU-Sim PTX: Warning %p28 was declared previous at ispass-2009-LPS.1.sm_30.ptx:25 skipping new declaration
GPGPU-Sim PTX: Warning %p29 was declared previous at ispass-2009-LPS.1.sm_30.ptx:25 skipping new declaration
GPGPU-Sim PTX: Warning %p30 was declared previous at ispass-2009-LPS.1.sm_30.ptx:25 skipping new declaration
GPGPU-Sim PTX: Warning %p31 was declared previous at ispass-2009-LPS.1.sm_30.ptx:25 skipping new declaration
GPGPU-Sim PTX: Warning %p32 was declared previous at ispass-2009-LPS.1.sm_30.ptx:25 skipping new declaration
GPGPU-Sim PTX: Warning %p33 was declared previous at ispass-2009-LPS.1.sm_30.ptx:25 skipping new declaration
GPGPU-Sim PTX: Warning %p34 was declared previous at ispass-2009-LPS.1.sm_30.ptx:25 skipping new declaration
GPGPU-Sim PTX: Warning %p35 was declared previous at ispass-2009-LPS.1.sm_30.ptx:25 skipping new declaration
GPGPU-Sim PTX: Warning %p36 was declared previous at ispass-2009-LPS.1.sm_30.ptx:25 skipping new declaration
GPGPU-Sim PTX: Warning %p37 was declared previous at ispass-2009-LPS.1.sm_30.ptx:25 skipping new declaration
GPGPU-Sim PTX: Warning %p38 was declared previous at ispass-2009-LPS.1.sm_30.ptx:25 skipping new declaration
GPGPU-Sim PTX: Warning %p39 was declared previous at ispass-2009-LPS.1.sm_30.ptx:25 skipping new declaration
GPGPU-Sim PTX: Warning %p40 was declared previous at ispass-2009-LPS.1.sm_30.ptx:25 skipping new declaration
GPGPU-Sim PTX: Warning %p41 was declared previous at ispass-2009-LPS.1.sm_30.ptx:25 skipping new declaration
GPGPU-Sim PTX: Warning %p42 was declared previous at ispass-2009-LPS.1.sm_30.ptx:25 skipping new declaration
GPGPU-Sim PTX: Warning %p43 was declared previous at ispass-2009-LPS.1.sm_30.ptx:25 skipping new declaration
GPGPU-Sim PTX: Warning %p44 was declared previous at ispass-2009-LPS.1.sm_30.ptx:25 skipping new declaration
GPGPU-Sim PTX: Warning %p45 was declared previous at ispass-2009-LPS.1.sm_30.ptx:25 skipping new declaration
GPGPU-Sim PTX: Warning %p46 was declared previous at ispass-2009-LPS.1.sm_30.ptx:25 skipping new declaration
GPGPU-Sim PTX: Warning %p47 was declared previous at ispass-2009-LPS.1.sm_30.ptx:25 skipping new declaration
GPGPU-Sim PTX: Warning %p48 was declared previous at ispass-2009-LPS.1.sm_30.ptx:25 skipping new declaration
GPGPU-Sim PTX: Warning %p49 was declared previous at ispass-2009-LPS.1.sm_30.ptx:25 skipping new declaration
GPGPU-Sim PTX: Warning %p50 was declared previous at ispass-2009-LPS.1.sm_30.ptx:25 skipping new declaration
GPGPU-Sim PTX: Warning %p51 was declared previous at ispass-2009-LPS.1.sm_30.ptx:25 skipping new declaration
GPGPU-Sim PTX: Warning %p52 was declared previous at ispass-2009-LPS.1.sm_30.ptx:25 skipping new declaration
GPGPU-Sim PTX: Warning %p53 was declared previous at ispass-2009-LPS.1.sm_30.ptx:25 skipping new declaration
GPGPU-Sim PTX: Warning %p54 was declared previous at ispass-2009-LPS.1.sm_30.ptx:25 skipping new declaration
GPGPU-Sim PTX: Warning %p55 was declared previous at ispass-2009-LPS.1.sm_30.ptx:25 skipping new declaration
GPGPU-Sim PTX: Warning %p56 was declared previous at ispass-2009-LPS.1.sm_30.ptx:25 skipping new declaration
GPGPU-Sim PTX: Warning %p57 was declared previous at ispass-2009-LPS.1.sm_30.ptx:25 skipping new declaration
GPGPU-Sim PTX: Warning %p58 was declared previous at ispass-2009-LPS.1.sm_30.ptx:25 skipping new declaration
GPGPU-Sim PTX: Warning %p59 was declared previous at ispass-2009-LPS.1.sm_30.ptx:25 skipping new declaration
GPGPU-Sim PTX: Warning %p60 was declared previous at ispass-2009-LPS.1.sm_30.ptx:25 skipping new declaration
GPGPU-Sim PTX: Warning %p61 was declared previous at ispass-2009-LPS.1.sm_30.ptx:25 skipping new declaration
GPGPU-Sim PTX: Warning %p62 was declared previous at ispass-2009-LPS.1.sm_30.ptx:25 skipping new declaration
GPGPU-Sim PTX: Warning %p63 was declared previous at ispass-2009-LPS.1.sm_30.ptx:25 skipping new declaration
GPGPU-Sim PTX: Warning %p64 was declared previous at ispass-2009-LPS.1.sm_30.ptx:25 skipping new declaration
GPGPU-Sim PTX: Warning %p65 was declared previous at ispass-2009-LPS.1.sm_30.ptx:25 skipping new declaration
GPGPU-Sim PTX: Warning %p66 was declared previous at ispass-2009-LPS.1.sm_30.ptx:25 skipping new declaration
GPGPU-Sim PTX: Warning %p67 was declared previous at ispass-2009-LPS.1.sm_30.ptx:25 skipping new declaration
GPGPU-Sim PTX: Warning %p68 was declared previous at ispass-2009-LPS.1.sm_30.ptx:25 skipping new declaration
GPGPU-Sim PTX: Warning %p69 was declared previous at ispass-2009-LPS.1.sm_30.ptx:25 skipping new declaration
GPGPU-Sim PTX: Warning %f0 was declared previous at ispass-2009-LPS.1.sm_30.ptx:26 skipping new declaration
GPGPU-Sim PTX: Warning %f1 was declared previous at ispass-2009-LPS.1.sm_30.ptx:26 skipping new declaration
GPGPU-Sim PTX: Warning %f2 was declared previous at ispass-2009-LPS.1.sm_30.ptx:26 skipping new declaration
GPGPU-Sim PTX: Warning %f3 was declared previous at ispass-2009-LPS.1.sm_30.ptx:26 skipping new declaration
GPGPU-Sim PTX: Warning %f4 was declared previous at ispass-2009-LPS.1.sm_30.ptx:26 skipping new declaration
GPGPU-Sim PTX: Warning %f5 was declared previous at ispass-2009-LPS.1.sm_30.ptx:26 skipping new declaration
GPGPU-Sim PTX: Warning %f6 was declared previous at ispass-2009-LPS.1.sm_30.ptx:26 skipping new declaration
GPGPU-Sim PTX: Warning %f7 was declared previous at ispass-2009-LPS.1.sm_30.ptx:26 skipping new declaration
GPGPU-Sim PTX: Warning %f8 was declared previous at ispass-2009-LPS.1.sm_30.ptx:26 skipping new declaration
GPGPU-Sim PTX: Warning %f9 was declared previous at ispass-2009-LPS.1.sm_30.ptx:26 skipping new declaration
GPGPU-Sim PTX: Warning %f10 was declared previous at ispass-2009-LPS.1.sm_30.ptx:26 skipping new declaration
GPGPU-Sim PTX: Warning %f11 was declared previous at ispass-2009-LPS.1.sm_30.ptx:26 skipping new declaration
GPGPU-Sim PTX: Warning %f12 was declared previous at ispass-2009-LPS.1.sm_30.ptx:26 skipping new declaration
GPGPU-Sim PTX: Warning %f13 was declared previous at ispass-2009-LPS.1.sm_30.ptx:26 skipping new declaration
GPGPU-Sim PTX: Warning %f14 was declared previous at ispass-2009-LPS.1.sm_30.ptx:26 skipping new declaration
GPGPU-Sim PTX: Warning %f15 was declared previous at ispass-2009-LPS.1.sm_30.ptx:26 skipping new declaration
GPGPU-Sim PTX: Warning %f16 was declared previous at ispass-2009-LPS.1.sm_30.ptx:26 skipping new declaration
GPGPU-Sim PTX: Warning %f17 was declared previous at ispass-2009-LPS.1.sm_30.ptx:26 skipping new declaration
GPGPU-Sim PTX: Warning %f18 was declared previous at ispass-2009-LPS.1.sm_30.ptx:26 skipping new declaration
GPGPU-Sim PTX: Warning %f19 was declared previous at ispass-2009-LPS.1.sm_30.ptx:26 skipping new declaration
GPGPU-Sim PTX: Warning %f20 was declared previous at ispass-2009-LPS.1.sm_30.ptx:26 skipping new declaration
GPGPU-Sim PTX: Warning %f21 was declared previous at ispass-2009-LPS.1.sm_30.ptx:26 skipping new declaration
GPGPU-Sim PTX: Warning %f22 was declared previous at ispass-2009-LPS.1.sm_30.ptx:26 skipping new declaration
GPGPU-Sim PTX: Warning %f23 was declared previous at ispass-2009-LPS.1.sm_30.ptx:26 skipping new declaration
GPGPU-Sim PTX: Warning %f24 was declared previous at ispass-2009-LPS.1.sm_30.ptx:26 skipping new declaration
GPGPU-Sim PTX: Warning %f25 was declared previous at ispass-2009-LPS.1.sm_30.ptx:26 skipping new declaration
GPGPU-Sim PTX: Warning %f26 was declared previous at ispass-2009-LPS.1.sm_30.ptx:26 skipping new declaration
GPGPU-Sim PTX: Warning %f27 was declared previous at ispass-2009-LPS.1.sm_30.ptx:26 skipping new declaration
GPGPU-Sim PTX: Warning %f28 was declared previous at ispass-2009-LPS.1.sm_30.ptx:26 skipping new declaration
GPGPU-Sim PTX: Warning %f29 was declared previous at ispass-2009-LPS.1.sm_30.ptx:26 skipping new declaration
GPGPU-Sim PTX: Warning %f30 was declared previous at ispass-2009-LPS.1.sm_30.ptx:26 skipping new declaration
GPGPU-Sim PTX: Warning %f31 was declared previous at ispass-2009-LPS.1.sm_30.ptx:26 skipping new declaration
GPGPU-Sim PTX: Warning %f32 was declared previous at ispass-2009-LPS.1.sm_30.ptx:26 skipping new declaration
GPGPU-Sim PTX: Warning %f33 was declared previous at ispass-2009-LPS.1.sm_30.ptx:26 skipping new declaration
GPGPU-Sim PTX: Warning %f34 was declared previous at ispass-2009-LPS.1.sm_30.ptx:26 skipping new declaration
GPGPU-Sim PTX: Warning %f35 was declared previous at ispass-2009-LPS.1.sm_30.ptx:26 skipping new declaration
GPGPU-Sim PTX: Warning %f36 was declared previous at ispass-2009-LPS.1.sm_30.ptx:26 skipping new declaration
GPGPU-Sim PTX: Warning %f37 was declared previous at ispass-2009-LPS.1.sm_30.ptx:26 skipping new declaration
GPGPU-Sim PTX: Warning %f38 was declared previous at ispass-2009-LPS.1.sm_30.ptx:26 skipping new declaration
GPGPU-Sim PTX: Warning %f39 was declared previous at ispass-2009-LPS.1.sm_30.ptx:26 skipping new declaration
GPGPU-Sim PTX: Warning %f40 was declared previous at ispass-2009-LPS.1.sm_30.ptx:26 skipping new declaration
GPGPU-Sim PTX: Warning %f41 was declared previous at ispass-2009-LPS.1.sm_30.ptx:26 skipping new declaration
GPGPU-Sim PTX: Warning %f42 was declared previous at ispass-2009-LPS.1.sm_30.ptx:26 skipping new declaration
GPGPU-Sim PTX: Warning %f43 was declared previous at ispass-2009-LPS.1.sm_30.ptx:26 skipping new declaration
GPGPU-Sim PTX: Warning %f44 was declared previous at ispass-2009-LPS.1.sm_30.ptx:26 skipping new declaration
GPGPU-Sim PTX: Warning %f45 was declared previous at ispass-2009-LPS.1.sm_30.ptx:26 skipping new declaration
GPGPU-Sim PTX: Warning %f46 was declared previous at ispass-2009-LPS.1.sm_30.ptx:26 skipping new declaration
GPGPU-Sim PTX: Warning %f47 was declared previous at ispass-2009-LPS.1.sm_30.ptx:26 skipping new declaration
GPGPU-Sim PTX: Warning %f48 was declared previous at ispass-2009-LPS.1.sm_30.ptx:26 skipping new declaration
GPGPU-Sim PTX: Warning %f49 was declared previous at ispass-2009-LPS.1.sm_30.ptx:26 skipping new declaration
GPGPU-Sim PTX: Warning %f50 was declared previous at ispass-2009-LPS.1.sm_30.ptx:26 skipping new declaration
GPGPU-Sim PTX: Warning %f51 was declared previous at ispass-2009-LPS.1.sm_30.ptx:26 skipping new declaration
GPGPU-Sim PTX: Warning %f52 was declared previous at ispass-2009-LPS.1.sm_30.ptx:26 skipping new declaration
GPGPU-Sim PTX: Warning %f53 was declared previous at ispass-2009-LPS.1.sm_30.ptx:26 skipping new declaration
GPGPU-Sim PTX: Warning %f54 was declared previous at ispass-2009-LPS.1.sm_30.ptx:26 skipping new declaration
GPGPU-Sim PTX: Warning %f55 was declared previous at ispass-2009-LPS.1.sm_30.ptx:26 skipping new declaration
GPGPU-Sim PTX: Warning %f56 was declared previous at ispass-2009-LPS.1.sm_30.ptx:26 skipping new declaration
GPGPU-Sim PTX: Warning %f57 was declared previous at ispass-2009-LPS.1.sm_30.ptx:26 skipping new declaration
GPGPU-Sim PTX: Warning %f58 was declared previous at ispass-2009-LPS.1.sm_30.ptx:26 skipping new declaration
GPGPU-Sim PTX: Warning %f59 was declared previous at ispass-2009-LPS.1.sm_30.ptx:26 skipping new declaration
GPGPU-Sim PTX: Warning %f60 was declared previous at ispass-2009-LPS.1.sm_30.ptx:26 skipping new declaration
GPGPU-Sim PTX: Warning %f61 was declared previous at ispass-2009-LPS.1.sm_30.ptx:26 skipping new declaration
GPGPU-Sim PTX: Warning %f62 was declared previous at ispass-2009-LPS.1.sm_30.ptx:26 skipping new declaration
GPGPU-Sim PTX: Warning %f63 was declared previous at ispass-2009-LPS.1.sm_30.ptx:26 skipping new declaration
GPGPU-Sim PTX: Warning %f64 was declared previous at ispass-2009-LPS.1.sm_30.ptx:26 skipping new declaration
GPGPU-Sim PTX: Warning %f65 was declared previous at ispass-2009-LPS.1.sm_30.ptx:26 skipping new declaration
GPGPU-Sim PTX: Warning %f66 was declared previous at ispass-2009-LPS.1.sm_30.ptx:26 skipping new declaration
GPGPU-Sim PTX: Warning %f67 was declared previous at ispass-2009-LPS.1.sm_30.ptx:26 skipping new declaration
GPGPU-Sim PTX: Warning %f68 was declared previous at ispass-2009-LPS.1.sm_30.ptx:26 skipping new declaration
GPGPU-Sim PTX: Warning %f69 was declared previous at ispass-2009-LPS.1.sm_30.ptx:26 skipping new declaration
GPGPU-Sim PTX: Warning %f70 was declared previous at ispass-2009-LPS.1.sm_30.ptx:26 skipping new declaration
GPGPU-Sim PTX: Warning %f71 was declared previous at ispass-2009-LPS.1.sm_30.ptx:26 skipping new declaration
GPGPU-Sim PTX: Warning %f72 was declared previous at ispass-2009-LPS.1.sm_30.ptx:26 skipping new declaration
GPGPU-Sim PTX: Warning %f73 was declared previous at ispass-2009-LPS.1.sm_30.ptx:26 skipping new declaration
GPGPU-Sim PTX: Warning %f74 was declared previous at ispass-2009-LPS.1.sm_30.ptx:26 skipping new declaration
GPGPU-Sim PTX: Warning %f75 was declared previous at ispass-2009-LPS.1.sm_30.ptx:26 skipping new declaration
GPGPU-Sim PTX: Warning %f76 was declared previous at ispass-2009-LPS.1.sm_30.ptx:26 skipping new declaration
GPGPU-Sim PTX: Warning %f77 was declared previous at ispass-2009-LPS.1.sm_30.ptx:26 skipping new declaration
GPGPU-Sim PTX: Warning %f78 was declared previous at ispass-2009-LPS.1.sm_30.ptx:26 skipping new declaration
GPGPU-Sim PTX: Warning %f79 was declared previous at ispass-2009-LPS.1.sm_30.ptx:26 skipping new declaration
GPGPU-Sim PTX: Warning %f80 was declared previous at ispass-2009-LPS.1.sm_30.ptx:26 skipping new declaration
GPGPU-Sim PTX: Warning %f81 was declared previous at ispass-2009-LPS.1.sm_30.ptx:26 skipping new declaration
GPGPU-Sim PTX: Warning %f82 was declared previous at ispass-2009-LPS.1.sm_30.ptx:26 skipping new declaration
GPGPU-Sim PTX: Warning %f83 was declared previous at ispass-2009-LPS.1.sm_30.ptx:26 skipping new declaration
GPGPU-Sim PTX: Warning %f84 was declared previous at ispass-2009-LPS.1.sm_30.ptx:26 skipping new declaration
GPGPU-Sim PTX: Warning %f85 was declared previous at ispass-2009-LPS.1.sm_30.ptx:26 skipping new declaration
GPGPU-Sim PTX: Warning %f86 was declared previous at ispass-2009-LPS.1.sm_30.ptx:26 skipping new declaration
GPGPU-Sim PTX: Warning %f87 was declared previous at ispass-2009-LPS.1.sm_30.ptx:26 skipping new declaration
GPGPU-Sim PTX: Warning %f88 was declared previous at ispass-2009-LPS.1.sm_30.ptx:26 skipping new declaration
GPGPU-Sim PTX: Warning %f89 was declared previous at ispass-2009-LPS.1.sm_30.ptx:26 skipping new declaration
GPGPU-Sim PTX: Warning %f90 was declared previous at ispass-2009-LPS.1.sm_30.ptx:26 skipping new declaration
GPGPU-Sim PTX: Warning %f91 was declared previous at ispass-2009-LPS.1.sm_30.ptx:26 skipping new declaration
GPGPU-Sim PTX: Warning %f92 was declared previous at ispass-2009-LPS.1.sm_30.ptx:26 skipping new declaration
GPGPU-Sim PTX: Warning %f93 was declared previous at ispass-2009-LPS.1.sm_30.ptx:26 skipping new declaration
GPGPU-Sim PTX: Warning %f94 was declared previous at ispass-2009-LPS.1.sm_30.ptx:26 skipping new declaration
GPGPU-Sim PTX: Warning %f95 was declared previous at ispass-2009-LPS.1.sm_30.ptx:26 skipping new declaration
GPGPU-Sim PTX: Warning %f96 was declared previous at ispass-2009-LPS.1.sm_30.ptx:26 skipping new declaration
GPGPU-Sim PTX: Warning %f97 was declared previous at ispass-2009-LPS.1.sm_30.ptx:26 skipping new declaration
GPGPU-Sim PTX: Warning %f98 was declared previous at ispass-2009-LPS.1.sm_30.ptx:26 skipping new declaration
GPGPU-Sim PTX: Warning %f99 was declared previous at ispass-2009-LPS.1.sm_30.ptx:26 skipping new declaration
GPGPU-Sim PTX: Warning %f100 was declared previous at ispass-2009-LPS.1.sm_30.ptx:26 skipping new declaration
GPGPU-Sim PTX: Warning %f101 was declared previous at ispass-2009-LPS.1.sm_30.ptx:26 skipping new declaration
GPGPU-Sim PTX: Warning %f102 was declared previous at ispass-2009-LPS.1.sm_30.ptx:26 skipping new declaration
GPGPU-Sim PTX: Warning %f103 was declared previous at ispass-2009-LPS.1.sm_30.ptx:26 skipping new declaration
GPGPU-Sim PTX: Warning %f104 was declared previous at ispass-2009-LPS.1.sm_30.ptx:26 skipping new declaration
GPGPU-Sim PTX: Warning %f105 was declared previous at ispass-2009-LPS.1.sm_30.ptx:26 skipping new declaration
GPGPU-Sim PTX: Warning %f106 was declared previous at ispass-2009-LPS.1.sm_30.ptx:26 skipping new declaration
GPGPU-Sim PTX: Warning %f107 was declared previous at ispass-2009-LPS.1.sm_30.ptx:26 skipping new declaration
GPGPU-Sim PTX: Warning %f108 was declared previous at ispass-2009-LPS.1.sm_30.ptx:26 skipping new declaration
GPGPU-Sim PTX: Warning %f109 was declared previous at ispass-2009-LPS.1.sm_30.ptx:26 skipping new declaration
GPGPU-Sim PTX: Warning %f110 was declared previous at ispass-2009-LPS.1.sm_30.ptx:26 skipping new declaration
GPGPU-Sim PTX: Warning %f111 was declared previous at ispass-2009-LPS.1.sm_30.ptx:26 skipping new declaration
GPGPU-Sim PTX: Warning %f112 was declared previous at ispass-2009-LPS.1.sm_30.ptx:26 skipping new declaration
GPGPU-Sim PTX: Warning %f113 was declared previous at ispass-2009-LPS.1.sm_30.ptx:26 skipping new declaration
GPGPU-Sim PTX: Warning %f114 was declared previous at ispass-2009-LPS.1.sm_30.ptx:26 skipping new declaration
GPGPU-Sim PTX: Warning %f115 was declared previous at ispass-2009-LPS.1.sm_30.ptx:26 skipping new declaration
GPGPU-Sim PTX: Warning %f116 was declared previous at ispass-2009-LPS.1.sm_30.ptx:26 skipping new declaration
GPGPU-Sim PTX: Warning %f117 was declared previous at ispass-2009-LPS.1.sm_30.ptx:26 skipping new declaration
GPGPU-Sim PTX: Warning %f118 was declared previous at ispass-2009-LPS.1.sm_30.ptx:26 skipping new declaration
GPGPU-Sim PTX: Warning %f119 was declared previous at ispass-2009-LPS.1.sm_30.ptx:26 skipping new declaration
GPGPU-Sim PTX: Warning %f120 was declared previous at ispass-2009-LPS.1.sm_30.ptx:26 skipping new declaration
GPGPU-Sim PTX: Warning %f121 was declared previous at ispass-2009-LPS.1.sm_30.ptx:26 skipping new declaration
GPGPU-Sim PTX: Warning %f122 was declared previous at ispass-2009-LPS.1.sm_30.ptx:26 skipping new declaration
GPGPU-Sim PTX: Warning %f123 was declared previous at ispass-2009-LPS.1.sm_30.ptx:26 skipping new declaration
GPGPU-Sim PTX: Warning %f124 was declared previous at ispass-2009-LPS.1.sm_30.ptx:26 skipping new declaration
GPGPU-Sim PTX: Warning %f125 was declared previous at ispass-2009-LPS.1.sm_30.ptx:26 skipping new declaration
GPGPU-Sim PTX: Warning %f126 was declared previous at ispass-2009-LPS.1.sm_30.ptx:26 skipping new declaration
GPGPU-Sim PTX: Warning %f127 was declared previous at ispass-2009-LPS.1.sm_30.ptx:26 skipping new declaration
GPGPU-Sim PTX: Warning %f128 was declared previous at ispass-2009-LPS.1.sm_30.ptx:26 skipping new declaration
GPGPU-Sim PTX: Warning %f129 was declared previous at ispass-2009-LPS.1.sm_30.ptx:26 skipping new declaration
GPGPU-Sim PTX: Warning %f130 was declared previous at ispass-2009-LPS.1.sm_30.ptx:26 skipping new declaration
GPGPU-Sim PTX: Warning %f131 was declared previous at ispass-2009-LPS.1.sm_30.ptx:26 skipping new declaration
GPGPU-Sim PTX: Warning %f132 was declared previous at ispass-2009-LPS.1.sm_30.ptx:26 skipping new declaration
GPGPU-Sim PTX: Warning %f133 was declared previous at ispass-2009-LPS.1.sm_30.ptx:26 skipping new declaration
GPGPU-Sim PTX: Warning %f134 was declared previous at ispass-2009-LPS.1.sm_30.ptx:26 skipping new declaration
GPGPU-Sim PTX: Warning %f135 was declared previous at ispass-2009-LPS.1.sm_30.ptx:26 skipping new declaration
GPGPU-Sim PTX: Warning %r0 was declared previous at ispass-2009-LPS.1.sm_30.ptx:27 skipping new declaration
GPGPU-Sim PTX: Warning %r1 was declared previous at ispass-2009-LPS.1.sm_30.ptx:27 skipping new declaration
GPGPU-Sim PTX: Warning %r2 was declared previous at ispass-2009-LPS.1.sm_30.ptx:27 skipping new declaration
GPGPU-Sim PTX: Warning %r3 was declared previous at ispass-2009-LPS.1.sm_30.ptx:27 skipping new declaration
GPGPU-Sim PTX: Warning %r4 was declared previous at ispass-2009-LPS.1.sm_30.ptx:27 skipping new declaration
GPGPU-Sim PTX: Warning %r5 was declared previous at ispass-2009-LPS.1.sm_30.ptx:27 skipping new declaration
GPGPU-Sim PTX: Warning %r6 was declared previous at ispass-2009-LPS.1.sm_30.ptx:27 skipping new declaration
GPGPU-Sim PTX: Warning %r7 was declared previous at ispass-2009-LPS.1.sm_30.ptx:27 skipping new declaration
GPGPU-Sim PTX: Warning %r8 was declared previous at ispass-2009-LPS.1.sm_30.ptx:27 skipping new declaration
GPGPU-Sim PTX: Warning %r9 was declared previous at ispass-2009-LPS.1.sm_30.ptx:27 skipping new declaration
GPGPU-Sim PTX: Warning %r10 was declared previous at ispass-2009-LPS.1.sm_30.ptx:27 skipping new declaration
GPGPU-Sim PTX: Warning %r11 was declared previous at ispass-2009-LPS.1.sm_30.ptx:27 skipping new declaration
GPGPU-Sim PTX: Warning %r12 was declared previous at ispass-2009-LPS.1.sm_30.ptx:27 skipping new declaration
GPGPU-Sim PTX: Warning %r13 was declared previous at ispass-2009-LPS.1.sm_30.ptx:27 skipping new declaration
GPGPU-Sim PTX: Warning %r14 was declared previous at ispass-2009-LPS.1.sm_30.ptx:27 skipping new declaration
GPGPU-Sim PTX: Warning %r15 was declared previous at ispass-2009-LPS.1.sm_30.ptx:27 skipping new declaration
GPGPU-Sim PTX: Warning %r16 was declared previous at ispass-2009-LPS.1.sm_30.ptx:27 skipping new declaration
GPGPU-Sim PTX: Warning %r17 was declared previous at ispass-2009-LPS.1.sm_30.ptx:27 skipping new declaration
GPGPU-Sim PTX: Warning %r18 was declared previous at ispass-2009-LPS.1.sm_30.ptx:27 skipping new declaration
GPGPU-Sim PTX: Warning %r19 was declared previous at ispass-2009-LPS.1.sm_30.ptx:27 skipping new declaration
GPGPU-Sim PTX: Warning %r20 was declared previous at ispass-2009-LPS.1.sm_30.ptx:27 skipping new declaration
GPGPU-Sim PTX: Warning %r21 was declared previous at ispass-2009-LPS.1.sm_30.ptx:27 skipping new declaration
GPGPU-Sim PTX: Warning %r22 was declared previous at ispass-2009-LPS.1.sm_30.ptx:27 skipping new declaration
GPGPU-Sim PTX: Warning %r23 was declared previous at ispass-2009-LPS.1.sm_30.ptx:27 skipping new declaration
GPGPU-Sim PTX: Warning %r24 was declared previous at ispass-2009-LPS.1.sm_30.ptx:27 skipping new declaration
GPGPU-Sim PTX: Warning %r25 was declared previous at ispass-2009-LPS.1.sm_30.ptx:27 skipping new declaration
GPGPU-Sim PTX: Warning %r26 was declared previous at ispass-2009-LPS.1.sm_30.ptx:27 skipping new declaration
GPGPU-Sim PTX: Warning %r27 was declared previous at ispass-2009-LPS.1.sm_30.ptx:27 skipping new declaration
GPGPU-Sim PTX: Warning %r28 was declared previous at ispass-2009-LPS.1.sm_30.ptx:27 skipping new declaration
GPGPU-Sim PTX: Warning %r29 was declared previous at ispass-2009-LPS.1.sm_30.ptx:27 skipping new declaration
GPGPU-Sim PTX: Warning %r30 was declared previous at ispass-2009-LPS.1.sm_30.ptx:27 skipping new declaration
GPGPU-Sim PTX: Warning %r31 was declared previous at ispass-2009-LPS.1.sm_30.ptx:27 skipping new declaration
GPGPU-Sim PTX: Warning %r32 was declared previous at ispass-2009-LPS.1.sm_30.ptx:27 skipping new declaration
GPGPU-Sim PTX: Warning %r33 was declared previous at ispass-2009-LPS.1.sm_30.ptx:27 skipping new declaration
GPGPU-Sim PTX: Warning %r34 was declared previous at ispass-2009-LPS.1.sm_30.ptx:27 skipping new declaration
GPGPU-Sim PTX: Warning %r35 was declared previous at ispass-2009-LPS.1.sm_30.ptx:27 skipping new declaration
GPGPU-Sim PTX: Warning %r36 was declared previous at ispass-2009-LPS.1.sm_30.ptx:27 skipping new declaration
GPGPU-Sim PTX: Warning %r37 was declared previous at ispass-2009-LPS.1.sm_30.ptx:27 skipping new declaration
GPGPU-Sim PTX: Warning %r38 was declared previous at ispass-2009-LPS.1.sm_30.ptx:27 skipping new declaration
GPGPU-Sim PTX: Warning %r39 was declared previous at ispass-2009-LPS.1.sm_30.ptx:27 skipping new declaration
GPGPU-Sim PTX: Warning %r40 was declared previous at ispass-2009-LPS.1.sm_30.ptx:27 skipping new declaration
GPGPU-Sim PTX: Warning %r41 was declared previous at ispass-2009-LPS.1.sm_30.ptx:27 skipping new declaration
GPGPU-Sim PTX: Warning %r42 was declared previous at ispass-2009-LPS.1.sm_30.ptx:27 skipping new declaration
GPGPU-Sim PTX: Warning %r43 was declared previous at ispass-2009-LPS.1.sm_30.ptx:27 skipping new declaration
GPGPU-Sim PTX: Warning %r44 was declared previous at ispass-2009-LPS.1.sm_30.ptx:27 skipping new declaration
GPGPU-Sim PTX: Warning %r45 was declared previous at ispass-2009-LPS.1.sm_30.ptx:27 skipping new declaration
GPGPU-Sim PTX: Warning %r46 was declared previous at ispass-2009-LPS.1.sm_30.ptx:27 skipping new declaration
GPGPU-Sim PTX: Warning %r47 was declared previous at ispass-2009-LPS.1.sm_30.ptx:27 skipping new declaration
GPGPU-Sim PTX: Warning %r48 was declared previous at ispass-2009-LPS.1.sm_30.ptx:27 skipping new declaration
GPGPU-Sim PTX: Warning %r49 was declared previous at ispass-2009-LPS.1.sm_30.ptx:27 skipping new declaration
GPGPU-Sim PTX: Warning %r50 was declared previous at ispass-2009-LPS.1.sm_30.ptx:27 skipping new declaration
GPGPU-Sim PTX: Warning %r51 was declared previous at ispass-2009-LPS.1.sm_30.ptx:27 skipping new declaration
GPGPU-Sim PTX: Warning %r52 was declared previous at ispass-2009-LPS.1.sm_30.ptx:27 skipping new declaration
GPGPU-Sim PTX: Warning %r53 was declared previous at ispass-2009-LPS.1.sm_30.ptx:27 skipping new declaration
GPGPU-Sim PTX: Warning %r54 was declared previous at ispass-2009-LPS.1.sm_30.ptx:27 skipping new declaration
GPGPU-Sim PTX: Warning %r55 was declared previous at ispass-2009-LPS.1.sm_30.ptx:27 skipping new declaration
GPGPU-Sim PTX: Warning %r56 was declared previous at ispass-2009-LPS.1.sm_30.ptx:27 skipping new declaration
GPGPU-Sim PTX: Warning %r57 was declared previous at ispass-2009-LPS.1.sm_30.ptx:27 skipping new declaration
GPGPU-Sim PTX: Warning %r58 was declared previous at ispass-2009-LPS.1.sm_30.ptx:27 skipping new declaration
GPGPU-Sim PTX: Warning %r59 was declared previous at ispass-2009-LPS.1.sm_30.ptx:27 skipping new declaration
GPGPU-Sim PTX: Warning %r60 was declared previous at ispass-2009-LPS.1.sm_30.ptx:27 skipping new declaration
GPGPU-Sim PTX: Warning %r61 was declared previous at ispass-2009-LPS.1.sm_30.ptx:27 skipping new declaration
GPGPU-Sim PTX: Warning %r62 was declared previous at ispass-2009-LPS.1.sm_30.ptx:27 skipping new declaration
GPGPU-Sim PTX: Warning %r63 was declared previous at ispass-2009-LPS.1.sm_30.ptx:27 skipping new declaration
GPGPU-Sim PTX: Warning %r64 was declared previous at ispass-2009-LPS.1.sm_30.ptx:27 skipping new declaration
GPGPU-Sim PTX: Warning %r65 was declared previous at ispass-2009-LPS.1.sm_30.ptx:27 skipping new declaration
GPGPU-Sim PTX: Warning %r66 was declared previous at ispass-2009-LPS.1.sm_30.ptx:27 skipping new declaration
GPGPU-Sim PTX: Warning %r67 was declared previous at ispass-2009-LPS.1.sm_30.ptx:27 skipping new declaration
GPGPU-Sim PTX: Warning %r68 was declared previous at ispass-2009-LPS.1.sm_30.ptx:27 skipping new declaration
GPGPU-Sim PTX: Warning %r69 was declared previous at ispass-2009-LPS.1.sm_30.ptx:27 skipping new declaration
GPGPU-Sim PTX: Warning %r70 was declared previous at ispass-2009-LPS.1.sm_30.ptx:27 skipping new declaration
GPGPU-Sim PTX: Warning %r71 was declared previous at ispass-2009-LPS.1.sm_30.ptx:27 skipping new declaration
GPGPU-Sim PTX: Warning %r72 was declared previous at ispass-2009-LPS.1.sm_30.ptx:27 skipping new declaration
GPGPU-Sim PTX: Warning %r73 was declared previous at ispass-2009-LPS.1.sm_30.ptx:27 skipping new declaration
GPGPU-Sim PTX: Warning %r74 was declared previous at ispass-2009-LPS.1.sm_30.ptx:27 skipping new declaration
GPGPU-Sim PTX: Warning %r75 was declared previous at ispass-2009-LPS.1.sm_30.ptx:27 skipping new declaration
GPGPU-Sim PTX: Warning %r76 was declared previous at ispass-2009-LPS.1.sm_30.ptx:27 skipping new declaration
GPGPU-Sim PTX: Warning %r77 was declared previous at ispass-2009-LPS.1.sm_30.ptx:27 skipping new declaration
GPGPU-Sim PTX: Warning %r78 was declared previous at ispass-2009-LPS.1.sm_30.ptx:27 skipping new declaration
GPGPU-Sim PTX: Warning %r79 was declared previous at ispass-2009-LPS.1.sm_30.ptx:27 skipping new declaration
GPGPU-Sim PTX: Warning %r80 was declared previous at ispass-2009-LPS.1.sm_30.ptx:27 skipping new declaration
GPGPU-Sim PTX: Warning %r81 was declared previous at ispass-2009-LPS.1.sm_30.ptx:27 skipping new declaration
GPGPU-Sim PTX: Warning %r82 was declared previous at ispass-2009-LPS.1.sm_30.ptx:27 skipping new declaration
GPGPU-Sim PTX: Warning %r83 was declared previous at ispass-2009-LPS.1.sm_30.ptx:27 skipping new declaration
GPGPU-Sim PTX: Warning %r84 was declared previous at ispass-2009-LPS.1.sm_30.ptx:27 skipping new declaration
GPGPU-Sim PTX: Warning %r85 was declared previous at ispass-2009-LPS.1.sm_30.ptx:27 skipping new declaration
GPGPU-Sim PTX: Warning %r86 was declared previous at ispass-2009-LPS.1.sm_30.ptx:27 skipping new declaration
GPGPU-Sim PTX: Warning %r87 was declared previous at ispass-2009-LPS.1.sm_30.ptx:27 skipping new declaration
GPGPU-Sim PTX: Warning %r88 was declared previous at ispass-2009-LPS.1.sm_30.ptx:27 skipping new declaration
GPGPU-Sim PTX: Warning %r89 was declared previous at ispass-2009-LPS.1.sm_30.ptx:27 skipping new declaration
GPGPU-Sim PTX: Warning %r90 was declared previous at ispass-2009-LPS.1.sm_30.ptx:27 skipping new declaration
GPGPU-Sim PTX: Warning %r91 was declared previous at ispass-2009-LPS.1.sm_30.ptx:27 skipping new declaration
GPGPU-Sim PTX: Warning %r92 was declared previous at ispass-2009-LPS.1.sm_30.ptx:27 skipping new declaration
GPGPU-Sim PTX: Warning %r93 was declared previous at ispass-2009-LPS.1.sm_30.ptx:27 skipping new declaration
GPGPU-Sim PTX: Warning %r94 was declared previous at ispass-2009-LPS.1.sm_30.ptx:27 skipping new declaration
GPGPU-Sim PTX: Warning %r95 was declared previous at ispass-2009-LPS.1.sm_30.ptx:27 skipping new declaration
GPGPU-Sim PTX: Warning %r96 was declared previous at ispass-2009-LPS.1.sm_30.ptx:27 skipping new declaration
GPGPU-Sim PTX: Warning %r97 was declared previous at ispass-2009-LPS.1.sm_30.ptx:27 skipping new declaration
GPGPU-Sim PTX: Warning %r98 was declared previous at ispass-2009-LPS.1.sm_30.ptx:27 skipping new declaration
GPGPU-Sim PTX: Warning %r99 was declared previous at ispass-2009-LPS.1.sm_30.ptx:27 skipping new declaration
GPGPU-Sim PTX: Warning %r100 was declared previous at ispass-2009-LPS.1.sm_30.ptx:27 skipping new declaration
GPGPU-Sim PTX: Warning %r101 was declared previous at ispass-2009-LPS.1.sm_30.ptx:27 skipping new declaration
GPGPU-Sim PTX: Warning %r102 was declared previous at ispass-2009-LPS.1.sm_30.ptx:27 skipping new declaration
GPGPU-Sim PTX: Warning %r103 was declared previous at ispass-2009-LPS.1.sm_30.ptx:27 skipping new declaration
GPGPU-Sim PTX: Warning %r104 was declared previous at ispass-2009-LPS.1.sm_30.ptx:27 skipping new declaration
GPGPU-Sim PTX: Warning %r105 was declared previous at ispass-2009-LPS.1.sm_30.ptx:27 skipping new declaration
GPGPU-Sim PTX: Warning %r106 was declared previous at ispass-2009-LPS.1.sm_30.ptx:27 skipping new declaration
GPGPU-Sim PTX: Warning %r107 was declared previous at ispass-2009-LPS.1.sm_30.ptx:27 skipping new declaration
GPGPU-Sim PTX: Warning %r108 was declared previous at ispass-2009-LPS.1.sm_30.ptx:27 skipping new declaration
GPGPU-Sim PTX: Warning %r109 was declared previous at ispass-2009-LPS.1.sm_30.ptx:27 skipping new declaration
GPGPU-Sim PTX: Warning %r110 was declared previous at ispass-2009-LPS.1.sm_30.ptx:27 skipping new declaration
GPGPU-Sim PTX: Warning %r111 was declared previous at ispass-2009-LPS.1.sm_30.ptx:27 skipping new declaration
GPGPU-Sim PTX: Warning %r112 was declared previous at ispass-2009-LPS.1.sm_30.ptx:27 skipping new declaration
GPGPU-Sim PTX: Warning %r113 was declared previous at ispass-2009-LPS.1.sm_30.ptx:27 skipping new declaration
GPGPU-Sim PTX: Warning %r114 was declared previous at ispass-2009-LPS.1.sm_30.ptx:27 skipping new declaration
GPGPU-Sim PTX: Warning %r115 was declared previous at ispass-2009-LPS.1.sm_30.ptx:27 skipping new declaration
GPGPU-Sim PTX: Warning %r116 was declared previous at ispass-2009-LPS.1.sm_30.ptx:27 skipping new declaration
GPGPU-Sim PTX: Warning %r117 was declared previous at ispass-2009-LPS.1.sm_30.ptx:27 skipping new declaration
GPGPU-Sim PTX: Warning %r118 was declared previous at ispass-2009-LPS.1.sm_30.ptx:27 skipping new declaration
GPGPU-Sim PTX: Warning %r119 was declared previous at ispass-2009-LPS.1.sm_30.ptx:27 skipping new declaration
GPGPU-Sim PTX: Warning %r120 was declared previous at ispass-2009-LPS.1.sm_30.ptx:27 skipping new declaration
GPGPU-Sim PTX: Warning %r121 was declared previous at ispass-2009-LPS.1.sm_30.ptx:27 skipping new declaration
GPGPU-Sim PTX: Warning %r122 was declared previous at ispass-2009-LPS.1.sm_30.ptx:27 skipping new declaration
GPGPU-Sim PTX: Warning %r123 was declared previous at ispass-2009-LPS.1.sm_30.ptx:27 skipping new declaration
GPGPU-Sim PTX: Warning %r124 was declared previous at ispass-2009-LPS.1.sm_30.ptx:27 skipping new declaration
GPGPU-Sim PTX: Warning %r125 was declared previous at ispass-2009-LPS.1.sm_30.ptx:27 skipping new declaration
GPGPU-Sim PTX: Warning %r126 was declared previous at ispass-2009-LPS.1.sm_30.ptx:27 skipping new declaration
GPGPU-Sim PTX: Warning %r127 was declared previous at ispass-2009-LPS.1.sm_30.ptx:27 skipping new declaration
GPGPU-Sim PTX: Warning %r128 was declared previous at ispass-2009-LPS.1.sm_30.ptx:27 skipping new declaration
GPGPU-Sim PTX: Warning %r129 was declared previous at ispass-2009-LPS.1.sm_30.ptx:27 skipping new declaration
GPGPU-Sim PTX: Warning %r130 was declared previous at ispass-2009-LPS.1.sm_30.ptx:27 skipping new declaration
GPGPU-Sim PTX: Warning %r131 was declared previous at ispass-2009-LPS.1.sm_30.ptx:27 skipping new declaration
GPGPU-Sim PTX: Warning %r132 was declared previous at ispass-2009-LPS.1.sm_30.ptx:27 skipping new declaration
GPGPU-Sim PTX: Warning %r133 was declared previous at ispass-2009-LPS.1.sm_30.ptx:27 skipping new declaration
GPGPU-Sim PTX: Warning %r134 was declared previous at ispass-2009-LPS.1.sm_30.ptx:27 skipping new declaration
GPGPU-Sim PTX: Warning %r135 was declared previous at ispass-2009-LPS.1.sm_30.ptx:27 skipping new declaration
GPGPU-Sim PTX: Warning %r136 was declared previous at ispass-2009-LPS.1.sm_30.ptx:27 skipping new declaration
GPGPU-Sim PTX: Warning %r137 was declared previous at ispass-2009-LPS.1.sm_30.ptx:27 skipping new declaration
GPGPU-Sim PTX: Warning %r138 was declared previous at ispass-2009-LPS.1.sm_30.ptx:27 skipping new declaration
GPGPU-Sim PTX: Warning %r139 was declared previous at ispass-2009-LPS.1.sm_30.ptx:27 skipping new declaration
GPGPU-Sim PTX: Warning %r140 was declared previous at ispass-2009-LPS.1.sm_30.ptx:27 skipping new declaration
GPGPU-Sim PTX: Warning %r141 was declared previous at ispass-2009-LPS.1.sm_30.ptx:27 skipping new declaration
GPGPU-Sim PTX: Warning %r142 was declared previous at ispass-2009-LPS.1.sm_30.ptx:27 skipping new declaration
GPGPU-Sim PTX: Warning %r143 was declared previous at ispass-2009-LPS.1.sm_30.ptx:27 skipping new declaration
GPGPU-Sim PTX: Warning %r144 was declared previous at ispass-2009-LPS.1.sm_30.ptx:27 skipping new declaration
GPGPU-Sim PTX: Warning %r145 was declared previous at ispass-2009-LPS.1.sm_30.ptx:27 skipping new declaration
GPGPU-Sim PTX: Warning %r146 was declared previous at ispass-2009-LPS.1.sm_30.ptx:27 skipping new declaration
GPGPU-Sim PTX: Warning %r147 was declared previous at ispass-2009-LPS.1.sm_30.ptx:27 skipping new declaration
GPGPU-Sim PTX: Warning %r148 was declared previous at ispass-2009-LPS.1.sm_30.ptx:27 skipping new declaration
GPGPU-Sim PTX: Warning %r149 was declared previous at ispass-2009-LPS.1.sm_30.ptx:27 skipping new declaration
GPGPU-Sim PTX: Warning %r150 was declared previous at ispass-2009-LPS.1.sm_30.ptx:27 skipping new declaration
GPGPU-Sim PTX: Warning %r151 was declared previous at ispass-2009-LPS.1.sm_30.ptx:27 skipping new declaration
GPGPU-Sim PTX: Warning %r152 was declared previous at ispass-2009-LPS.1.sm_30.ptx:27 skipping new declaration
GPGPU-Sim PTX: Warning %r153 was declared previous at ispass-2009-LPS.1.sm_30.ptx:27 skipping new declaration
GPGPU-Sim PTX: Warning %r154 was declared previous at ispass-2009-LPS.1.sm_30.ptx:27 skipping new declaration
GPGPU-Sim PTX: Warning %r155 was declared previous at ispass-2009-LPS.1.sm_30.ptx:27 skipping new declaration
GPGPU-Sim PTX: Warning %r156 was declared previous at ispass-2009-LPS.1.sm_30.ptx:27 skipping new declaration
GPGPU-Sim PTX: Warning %r157 was declared previous at ispass-2009-LPS.1.sm_30.ptx:27 skipping new declaration
GPGPU-Sim PTX: Warning %r158 was declared previous at ispass-2009-LPS.1.sm_30.ptx:27 skipping new declaration
GPGPU-Sim PTX: Warning %r159 was declared previous at ispass-2009-LPS.1.sm_30.ptx:27 skipping new declaration
GPGPU-Sim PTX: Warning %r160 was declared previous at ispass-2009-LPS.1.sm_30.ptx:27 skipping new declaration
GPGPU-Sim PTX: Warning %r161 was declared previous at ispass-2009-LPS.1.sm_30.ptx:27 skipping new declaration
GPGPU-Sim PTX: Warning %r162 was declared previous at ispass-2009-LPS.1.sm_30.ptx:27 skipping new declaration
GPGPU-Sim PTX: Warning %r163 was declared previous at ispass-2009-LPS.1.sm_30.ptx:27 skipping new declaration
GPGPU-Sim PTX: Warning %r164 was declared previous at ispass-2009-LPS.1.sm_30.ptx:27 skipping new declaration
GPGPU-Sim PTX: Warning %r165 was declared previous at ispass-2009-LPS.1.sm_30.ptx:27 skipping new declaration
GPGPU-Sim PTX: Warning %r166 was declared previous at ispass-2009-LPS.1.sm_30.ptx:27 skipping new declaration
GPGPU-Sim PTX: Warning %r167 was declared previous at ispass-2009-LPS.1.sm_30.ptx:27 skipping new declaration
GPGPU-Sim PTX: Warning %r168 was declared previous at ispass-2009-LPS.1.sm_30.ptx:27 skipping new declaration
GPGPU-Sim PTX: Warning %r169 was declared previous at ispass-2009-LPS.1.sm_30.ptx:27 skipping new declaration
GPGPU-Sim PTX: Warning %r170 was declared previous at ispass-2009-LPS.1.sm_30.ptx:27 skipping new declaration
GPGPU-Sim PTX: Warning %r171 was declared previous at ispass-2009-LPS.1.sm_30.ptx:27 skipping new declaration
GPGPU-Sim PTX: Warning %r172 was declared previous at ispass-2009-LPS.1.sm_30.ptx:27 skipping new declaration
GPGPU-Sim PTX: Warning %r173 was declared previous at ispass-2009-LPS.1.sm_30.ptx:27 skipping new declaration
GPGPU-Sim PTX: Warning %r174 was declared previous at ispass-2009-LPS.1.sm_30.ptx:27 skipping new declaration
GPGPU-Sim PTX: Warning %r175 was declared previous at ispass-2009-LPS.1.sm_30.ptx:27 skipping new declaration
GPGPU-Sim PTX: Warning %r176 was declared previous at ispass-2009-LPS.1.sm_30.ptx:27 skipping new declaration
GPGPU-Sim PTX: Warning %r177 was declared previous at ispass-2009-LPS.1.sm_30.ptx:27 skipping new declaration
GPGPU-Sim PTX: Warning %r178 was declared previous at ispass-2009-LPS.1.sm_30.ptx:27 skipping new declaration
GPGPU-Sim PTX: Warning %r179 was declared previous at ispass-2009-LPS.1.sm_30.ptx:27 skipping new declaration
GPGPU-Sim PTX: Warning %r180 was declared previous at ispass-2009-LPS.1.sm_30.ptx:27 skipping new declaration
GPGPU-Sim PTX: Warning %r181 was declared previous at ispass-2009-LPS.1.sm_30.ptx:27 skipping new declaration
GPGPU-Sim PTX: Warning %r182 was declared previous at ispass-2009-LPS.1.sm_30.ptx:27 skipping new declaration
GPGPU-Sim PTX: Warning %r183 was declared previous at ispass-2009-LPS.1.sm_30.ptx:27 skipping new declaration
GPGPU-Sim PTX: Warning %r184 was declared previous at ispass-2009-LPS.1.sm_30.ptx:27 skipping new declaration
GPGPU-Sim PTX: Warning %r185 was declared previous at ispass-2009-LPS.1.sm_30.ptx:27 skipping new declaration
GPGPU-Sim PTX: Warning %r186 was declared previous at ispass-2009-LPS.1.sm_30.ptx:27 skipping new declaration
GPGPU-Sim PTX: Warning %r187 was declared previous at ispass-2009-LPS.1.sm_30.ptx:27 skipping new declaration
GPGPU-Sim PTX: Warning %r188 was declared previous at ispass-2009-LPS.1.sm_30.ptx:27 skipping new declaration
GPGPU-Sim PTX: Warning %r189 was declared previous at ispass-2009-LPS.1.sm_30.ptx:27 skipping new declaration
GPGPU-Sim PTX: Warning %r190 was declared previous at ispass-2009-LPS.1.sm_30.ptx:27 skipping new declaration
GPGPU-Sim PTX: Warning %r191 was declared previous at ispass-2009-LPS.1.sm_30.ptx:27 skipping new declaration
GPGPU-Sim PTX: Warning %r192 was declared previous at ispass-2009-LPS.1.sm_30.ptx:27 skipping new declaration
GPGPU-Sim PTX: Warning %r193 was declared previous at ispass-2009-LPS.1.sm_30.ptx:27 skipping new declaration
GPGPU-Sim PTX: Warning %r194 was declared previous at ispass-2009-LPS.1.sm_30.ptx:27 skipping new declaration
GPGPU-Sim PTX: Warning %r195 was declared previous at ispass-2009-LPS.1.sm_30.ptx:27 skipping new declaration
GPGPU-Sim PTX: Warning %r196 was declared previous at ispass-2009-LPS.1.sm_30.ptx:27 skipping new declaration
GPGPU-Sim PTX: Warning %r197 was declared previous at ispass-2009-LPS.1.sm_30.ptx:27 skipping new declaration
GPGPU-Sim PTX: Warning %r198 was declared previous at ispass-2009-LPS.1.sm_30.ptx:27 skipping new declaration
GPGPU-Sim PTX: Warning %r199 was declared previous at ispass-2009-LPS.1.sm_30.ptx:27 skipping new declaration
GPGPU-Sim PTX: Warning %r200 was declared previous at ispass-2009-LPS.1.sm_30.ptx:27 skipping new declaration
GPGPU-Sim PTX: Warning %r201 was declared previous at ispass-2009-LPS.1.sm_30.ptx:27 skipping new declaration
GPGPU-Sim PTX: Warning %r202 was declared previous at ispass-2009-LPS.1.sm_30.ptx:27 skipping new declaration
GPGPU-Sim PTX: Warning %r203 was declared previous at ispass-2009-LPS.1.sm_30.ptx:27 skipping new declaration
GPGPU-Sim PTX: Warning %r204 was declared previous at ispass-2009-LPS.1.sm_30.ptx:27 skipping new declaration
GPGPU-Sim PTX: Warning %r205 was declared previous at ispass-2009-LPS.1.sm_30.ptx:27 skipping new declaration
GPGPU-Sim PTX: Warning %r206 was declared previous at ispass-2009-LPS.1.sm_30.ptx:27 skipping new declaration
GPGPU-Sim PTX: Warning %r207 was declared previous at ispass-2009-LPS.1.sm_30.ptx:27 skipping new declaration
GPGPU-Sim PTX: Warning %r208 was declared previous at ispass-2009-LPS.1.sm_30.ptx:27 skipping new declaration
GPGPU-Sim PTX: Warning %r209 was declared previous at ispass-2009-LPS.1.sm_30.ptx:27 skipping new declaration
GPGPU-Sim PTX: Warning %r210 was declared previous at ispass-2009-LPS.1.sm_30.ptx:27 skipping new declaration
GPGPU-Sim PTX: Warning %r211 was declared previous at ispass-2009-LPS.1.sm_30.ptx:27 skipping new declaration
GPGPU-Sim PTX: Warning %r212 was declared previous at ispass-2009-LPS.1.sm_30.ptx:27 skipping new declaration
GPGPU-Sim PTX: Warning %r213 was declared previous at ispass-2009-LPS.1.sm_30.ptx:27 skipping new declaration
GPGPU-Sim PTX: Warning %r214 was declared previous at ispass-2009-LPS.1.sm_30.ptx:27 skipping new declaration
GPGPU-Sim PTX: Warning %r215 was declared previous at ispass-2009-LPS.1.sm_30.ptx:27 skipping new declaration
GPGPU-Sim PTX: Warning %r216 was declared previous at ispass-2009-LPS.1.sm_30.ptx:27 skipping new declaration
GPGPU-Sim PTX: Warning %r217 was declared previous at ispass-2009-LPS.1.sm_30.ptx:27 skipping new declaration
GPGPU-Sim PTX: Warning %r218 was declared previous at ispass-2009-LPS.1.sm_30.ptx:27 skipping new declaration
GPGPU-Sim PTX: Warning %r219 was declared previous at ispass-2009-LPS.1.sm_30.ptx:27 skipping new declaration
GPGPU-Sim PTX: Warning %r220 was declared previous at ispass-2009-LPS.1.sm_30.ptx:27 skipping new declaration
GPGPU-Sim PTX: Warning %r221 was declared previous at ispass-2009-LPS.1.sm_30.ptx:27 skipping new declaration
GPGPU-Sim PTX: Warning %r222 was declared previous at ispass-2009-LPS.1.sm_30.ptx:27 skipping new declaration
GPGPU-Sim PTX: Warning %r223 was declared previous at ispass-2009-LPS.1.sm_30.ptx:27 skipping new declaration
GPGPU-Sim PTX: Warning %r224 was declared previous at ispass-2009-LPS.1.sm_30.ptx:27 skipping new declaration
GPGPU-Sim PTX: Warning %r225 was declared previous at ispass-2009-LPS.1.sm_30.ptx:27 skipping new declaration
GPGPU-Sim PTX: Warning %r226 was declared previous at ispass-2009-LPS.1.sm_30.ptx:27 skipping new declaration
GPGPU-Sim PTX: Warning %r227 was declared previous at ispass-2009-LPS.1.sm_30.ptx:27 skipping new declaration
GPGPU-Sim PTX: Warning %r228 was declared previous at ispass-2009-LPS.1.sm_30.ptx:27 skipping new declaration
GPGPU-Sim PTX: Warning %r229 was declared previous at ispass-2009-LPS.1.sm_30.ptx:27 skipping new declaration
GPGPU-Sim PTX: Warning %r230 was declared previous at ispass-2009-LPS.1.sm_30.ptx:27 skipping new declaration
GPGPU-Sim PTX: Warning %r231 was declared previous at ispass-2009-LPS.1.sm_30.ptx:27 skipping new declaration
GPGPU-Sim PTX: Warning %r232 was declared previous at ispass-2009-LPS.1.sm_30.ptx:27 skipping new declaration
GPGPU-Sim PTX: Warning %r233 was declared previous at ispass-2009-LPS.1.sm_30.ptx:27 skipping new declaration
GPGPU-Sim PTX: Warning %r234 was declared previous at ispass-2009-LPS.1.sm_30.ptx:27 skipping new declaration
GPGPU-Sim PTX: Warning %r235 was declared previous at ispass-2009-LPS.1.sm_30.ptx:27 skipping new declaration
GPGPU-Sim PTX: Warning %r236 was declared previous at ispass-2009-LPS.1.sm_30.ptx:27 skipping new declaration
GPGPU-Sim PTX: Warning %r237 was declared previous at ispass-2009-LPS.1.sm_30.ptx:27 skipping new declaration
GPGPU-Sim PTX: Warning %r238 was declared previous at ispass-2009-LPS.1.sm_30.ptx:27 skipping new declaration
GPGPU-Sim PTX: Warning %r239 was declared previous at ispass-2009-LPS.1.sm_30.ptx:27 skipping new declaration
GPGPU-Sim PTX: Warning %r240 was declared previous at ispass-2009-LPS.1.sm_30.ptx:27 skipping new declaration
GPGPU-Sim PTX: Warning %r241 was declared previous at ispass-2009-LPS.1.sm_30.ptx:27 skipping new declaration
GPGPU-Sim PTX: Warning %r242 was declared previous at ispass-2009-LPS.1.sm_30.ptx:27 skipping new declaration
GPGPU-Sim PTX: Warning %r243 was declared previous at ispass-2009-LPS.1.sm_30.ptx:27 skipping new declaration
GPGPU-Sim PTX: Warning %r244 was declared previous at ispass-2009-LPS.1.sm_30.ptx:27 skipping new declaration
GPGPU-Sim PTX: Warning %r245 was declared previous at ispass-2009-LPS.1.sm_30.ptx:27 skipping new declaration
GPGPU-Sim PTX: Warning %r246 was declared previous at ispass-2009-LPS.1.sm_30.ptx:27 skipping new declaration
GPGPU-Sim PTX: Warning %r247 was declared previous at ispass-2009-LPS.1.sm_30.ptx:27 skipping new declaration
GPGPU-Sim PTX: Warning %r248 was declared previous at ispass-2009-LPS.1.sm_30.ptx:27 skipping new declaration
GPGPU-Sim PTX: Warning %r249 was declared previous at ispass-2009-LPS.1.sm_30.ptx:27 skipping new declaration
GPGPU-Sim PTX: Warning %r250 was declared previous at ispass-2009-LPS.1.sm_30.ptx:27 skipping new declaration
GPGPU-Sim PTX: Warning %r251 was declared previous at ispass-2009-LPS.1.sm_30.ptx:27 skipping new declaration
GPGPU-Sim PTX: Warning %r252 was declared previous at ispass-2009-LPS.1.sm_30.ptx:27 skipping new declaration
GPGPU-Sim PTX: Warning %rd0 was declared previous at ispass-2009-LPS.1.sm_30.ptx:28 skipping new declaration
GPGPU-Sim PTX: Warning %rd1 was declared previous at ispass-2009-LPS.1.sm_30.ptx:28 skipping new declaration
GPGPU-Sim PTX: Warning %rd2 was declared previous at ispass-2009-LPS.1.sm_30.ptx:28 skipping new declaration
GPGPU-Sim PTX: Warning %rd3 was declared previous at ispass-2009-LPS.1.sm_30.ptx:28 skipping new declaration
GPGPU-Sim PTX: Warning %rd4 was declared previous at ispass-2009-LPS.1.sm_30.ptx:28 skipping new declaration
GPGPU-Sim PTX: Warning %rd5 was declared previous at ispass-2009-LPS.1.sm_30.ptx:28 skipping new declaration
GPGPU-Sim PTX: Warning %rd6 was declared previous at ispass-2009-LPS.1.sm_30.ptx:28 skipping new declaration
GPGPU-Sim PTX: Warning %rd7 was declared previous at ispass-2009-LPS.1.sm_30.ptx:28 skipping new declaration
GPGPU-Sim PTX: Warning %rd8 was declared previous at ispass-2009-LPS.1.sm_30.ptx:28 skipping new declaration
GPGPU-Sim PTX: Warning %rd9 was declared previous at ispass-2009-LPS.1.sm_30.ptx:28 skipping new declaration
GPGPU-Sim PTX: Warning %rd10 was declared previous at ispass-2009-LPS.1.sm_30.ptx:28 skipping new declaration
GPGPU-Sim PTX: Warning %rd11 was declared previous at ispass-2009-LPS.1.sm_30.ptx:28 skipping new declaration
GPGPU-Sim PTX: Warning %rd12 was declared previous at ispass-2009-LPS.1.sm_30.ptx:28 skipping new declaration
GPGPU-Sim PTX: Warning %rd13 was declared previous at ispass-2009-LPS.1.sm_30.ptx:28 skipping new declaration
GPGPU-Sim PTX: Warning %rd14 was declared previous at ispass-2009-LPS.1.sm_30.ptx:28 skipping new declaration
GPGPU-Sim PTX: Warning %rd15 was declared previous at ispass-2009-LPS.1.sm_30.ptx:28 skipping new declaration
GPGPU-Sim PTX: Warning %rd16 was declared previous at ispass-2009-LPS.1.sm_30.ptx:28 skipping new declaration
GPGPU-Sim PTX: Warning %rd17 was declared previous at ispass-2009-LPS.1.sm_30.ptx:28 skipping new declaration
GPGPU-Sim PTX: Warning %rd18 was declared previous at ispass-2009-LPS.1.sm_30.ptx:28 skipping new declaration
GPGPU-Sim PTX: Warning %rd19 was declared previous at ispass-2009-LPS.1.sm_30.ptx:28 skipping new declaration
GPGPU-Sim PTX: Warning %rd20 was declared previous at ispass-2009-LPS.1.sm_30.ptx:28 skipping new declaration
GPGPU-Sim PTX: Warning %rd21 was declared previous at ispass-2009-LPS.1.sm_30.ptx:28 skipping new declaration
GPGPU-Sim PTX: Warning %rd22 was declared previous at ispass-2009-LPS.1.sm_30.ptx:28 skipping new declaration
GPGPU-Sim PTX: Warning %rd23 was declared previous at ispass-2009-LPS.1.sm_30.ptx:28 skipping new declaration
GPGPU-Sim PTX: Warning %rd24 was declared previous at ispass-2009-LPS.1.sm_30.ptx:28 skipping new declaration
GPGPU-Sim PTX: Warning %rd25 was declared previous at ispass-2009-LPS.1.sm_30.ptx:28 skipping new declaration
GPGPU-Sim PTX: Warning %rd26 was declared previous at ispass-2009-LPS.1.sm_30.ptx:28 skipping new declaration
GPGPU-Sim PTX: Warning %rd27 was declared previous at ispass-2009-LPS.1.sm_30.ptx:28 skipping new declaration
GPGPU-Sim PTX: Warning %rd28 was declared previous at ispass-2009-LPS.1.sm_30.ptx:28 skipping new declaration
GPGPU-Sim PTX: Warning %rd29 was declared previous at ispass-2009-LPS.1.sm_30.ptx:28 skipping new declaration
GPGPU-Sim PTX: Warning %rd30 was declared previous at ispass-2009-LPS.1.sm_30.ptx:28 skipping new declaration
[...]

------------------------------------------------------------------------

Row_Buffer_Locality = 0.882787
Row_Buffer_Locality_read = 0.964675
Row_Buffer_Locality_write = 0.324037
Bank_Level_Parallism = 1.692954
Bank_Level_Parallism_Col = 1.513877
Bank_Level_Parallism_Ready = 1.084233
write_to_read_ratio_blp_rw_average = 0.471830
GrpLevelPara = 1.421892 

BW Util details:
bwutil = 0.193201 
total_CMD = 168736 
util_bw = 32600 
Wasted_Col = 35008 
Wasted_Row = 9488 
Idle = 91640 

BW Util Bottlenecks: 
RCDc_limit = 4902 
RCDWRc_limit = 6732 
WTRc_limit = 10535 
RTWc_limit = 14280 
CCDLc_limit = 16892 
rwq = 0 
CCDLc_limit_alone = 15447 
WTRc_limit_alone = 10003 
RTWc_limit_alone = 13367 

Commands details: 
total_CMD = 168736 
n_nop = 149708 
Read = 10276 
Write = 0 
L2_Alloc = 0 
L2_WB = 6024 
n_act = 1397 
n_pre = 1381 
n_ref = 0 
n_req = 11782 
total_req = 16300 

Dual Bus Interface Util: 
issued_total_row = 2778 
issued_total_col = 16300 
Row_Bus_Util =  0.016464 
CoL_Bus_Util = 0.096601 
Either_Row_CoL_Bus_Util = 0.112768 
Issued_on_Two_Bus_Simul_Util = 0.000296 
issued_two_Eff = 0.002628 
queue_avg = 0.533093 


dram_util_bins: 0 0 0 0 0 0 0 0 0 0
dram_eff_bins: 0 0 0 0 0 0 0 0 0 0
mrqq: max=20 avg=0.533093
Memory Partition 7: 
Cache L2_bank_014:
MSHR contents

Cache L2_bank_015:
MSHR contents

In Dram Latency Queue (total = 0): 
DRAM[7]: 16 bks, busW=4 BL=8 CL=16, tRRD=8 tCCD=2, tRCD=16 tRAS=37 tRP=16 tRC=52
n_cmd=168736 n_nop=148532 n_act=1592 n_pre=1576 n_ref_event=0 n_req=12095 n_rd=10424 n_rd_L2_A=0 n_write=0 n_wr_bk=6684 bw_util=0.2028
n_activity=106379 dram_eff=0.3216
bk0: 720a 160681i bk1: 660a 160730i bk2: 640a 159101i bk3: 640a 161080i bk4: 648a 161055i bk5: 720a 159625i bk6: 680a 160048i bk7: 564a 160364i bk8: 612a 160910i bk9: 672a 160101i bk10: 660a 160365i bk11: 652a 160375i bk12: 688a 161068i bk13: 520a 161671i bk14: 720a 161349i bk15: 628a 162014i 

------------------------------------------------------------------------

Row_Buffer_Locality = 0.869698
Row_Buffer_Locality_read = 0.958365
Row_Buffer_Locality_write = 0.316577
Bank_Level_Parallism = 1.800568
Bank_Level_Parallism_Col = 1.591575
Bank_Level_Parallism_Ready = 1.111873
write_to_read_ratio_blp_rw_average = 0.481423
GrpLevelPara = 1.464955 

BW Util details:
bwutil = 0.202778 
total_CMD = 168736 
util_bw = 34216 
Wasted_Col = 36731 
Wasted_Row = 9946 
Idle = 87843 

BW Util Bottlenecks: 
RCDc_limit = 5647 
RCDWRc_limit = 7357 
WTRc_limit = 12024 
RTWc_limit = 15971 
CCDLc_limit = 17983 
rwq = 0 
CCDLc_limit_alone = 16210 
WTRc_limit_alone = 11293 
RTWc_limit_alone = 14929 

Commands details: 
total_CMD = 168736 
n_nop = 148532 
Read = 10424 
Write = 0 
L2_Alloc = 0 
L2_WB = 6684 
n_act = 1592 
n_pre = 1576 
n_ref = 0 
n_req = 12095 
total_req = 17108 

Dual Bus Interface Util: 
issued_total_row = 3168 
issued_total_col = 17108 
Row_Bus_Util =  0.018775 
CoL_Bus_Util = 0.101389 
Either_Row_CoL_Bus_Util = 0.119737 
Issued_on_Two_Bus_Simul_Util = 0.000427 
issued_two_Eff = 0.003564 
queue_avg = 0.638281 


dram_util_bins: 0 0 0 0 0 0 0 0 0 0
dram_eff_bins: 0 0 0 0 0 0 0 0 0 0
mrqq: max=21 avg=0.638281
Memory Partition 8: 
Cache L2_bank_016:
MSHR contents

Cache L2_bank_017:
MSHR contents

In Dram Latency Queue (total = 1): 
Ready @ 95677 -   mf: uid=1832153, sid4294967295:w4294967295, part=8, addr=0xc053e180, store, size=128, L2_WRBK  status = IN_PARTITION_DRAM_LATENCY_QUEUE (95577), 
DRAM[8]: 16 bks, busW=4 BL=8 CL=16, tRRD=8 tCCD=2, tRCD=16 tRAS=37 tRP=16 tRC=52
n_cmd=168736 n_nop=149716 n_act=1487 n_pre=1472 n_ref_event=0 n_req=11430 n_rd=9868 n_rd_L2_A=0 n_write=0 n_wr_bk=6244 bw_util=0.191
n_activity=101815 dram_eff=0.3165
bk0: 668a 161190i bk1: 716a 161198i bk2: 552a 161132i bk3: 620a 160373i bk4: 732a 160512i bk5: 640a 161608i bk6: 624a 161183i bk7: 624a 161167i bk8: 552a 161792i bk9: 572a 161443i bk10: 524a 160874i bk11: 576a 162204i bk12: 592a 162527i bk13: 564a 162010i bk14: 640a 161934i bk15: 672a 160676i 

------------------------------------------------------------------------

Row_Buffer_Locality = 0.871216
Row_Buffer_Locality_read = 0.959364
Row_Buffer_Locality_write = 0.314341
Bank_Level_Parallism = 1.728944
Bank_Level_Parallism_Col = 1.524800
Bank_Level_Parallism_Ready = 1.092715
write_to_read_ratio_blp_rw_average = 0.472745
GrpLevelPara = 1.423065 

BW Util details:
bwutil = 0.190973 
total_CMD = 168736 
util_bw = 32224 
Wasted_Col = 35034 
Wasted_Row = 9953 
Idle = 91525 

BW Util Bottlenecks: 
RCDc_limit = 5223 
RCDWRc_limit = 6948 
WTRc_limit = 10585 
RTWc_limit = 13866 
CCDLc_limit = 17161 
rwq = 0 
CCDLc_limit_alone = 15705 
WTRc_limit_alone = 9926 
RTWc_limit_alone = 13069 

Commands details: 
total_CMD = 168736 
n_nop = 149716 
Read = 9868 
Write = 0 
L2_Alloc = 0 
L2_WB = 6244 
n_act = 1487 
n_pre = 1472 
n_ref = 0 
n_req = 11430 
total_req = 16112 

Dual Bus Interface Util: 
issued_total_row = 2959 
issued_total_col = 16112 
Row_Bus_Util =  0.017536 
CoL_Bus_Util = 0.095486 
Either_Row_CoL_Bus_Util = 0.112720 
Issued_on_Two_Bus_Simul_Util = 0.000302 
issued_two_Eff = 0.002681 
queue_avg = 0.619524 


dram_util_bins: 0 0 0 0 0 0 0 0 0 0
dram_eff_bins: 0 0 0 0 0 0 0 0 0 0
mrqq: max=19 avg=0.619524
Memory Partition 9: 
Cache L2_bank_018:
MSHR contents

Cache L2_bank_019:
MSHR contents

In Dram Latency Queue (total = 0): 
DRAM[9]: 16 bks, busW=4 BL=8 CL=16, tRRD=8 tCCD=2, tRCD=16 tRAS=37 tRP=16 tRC=52
n_cmd=168736 n_nop=149378 n_act=1469 n_pre=1453 n_ref_event=0 n_req=11769 n_rd=10192 n_rd_L2_A=0 n_write=0 n_wr_bk=6308 bw_util=0.1956
n_activity=102724 dram_eff=0.3212
bk0: 648a 161895i bk1: 612a 161307i bk2: 616a 161556i bk3: 640a 160153i bk4: 668a 161225i bk5: 636a 161379i bk6: 600a 161271i bk7: 652a 161118i bk8: 556a 160269i bk9: 696a 160478i bk10: 660a 161175i bk11: 672a 161166i bk12: 616a 161328i bk13: 684a 160969i bk14: 700a 160954i bk15: 536a 162428i 

------------------------------------------------------------------------

Row_Buffer_Locality = 0.876540
Row_Buffer_Locality_read = 0.960557
Row_Buffer_Locality_write = 0.333545
Bank_Level_Parallism = 1.764496
Bank_Level_Parallism_Col = 1.562803
Bank_Level_Parallism_Ready = 1.090279
write_to_read_ratio_blp_rw_average = 0.478168
GrpLevelPara = 1.445297 

BW Util details:
bwutil = 0.195572 
total_CMD = 168736 
util_bw = 33000 
Wasted_Col = 35305 
Wasted_Row = 9320 
Idle = 91111 

BW Util Bottlenecks: 
RCDc_limit = 5230 
RCDWRc_limit = 6633 
WTRc_limit = 11039 
RTWc_limit = 14911 
CCDLc_limit = 17548 
rwq = 0 
CCDLc_limit_alone = 15874 
WTRc_limit_alone = 10344 
RTWc_limit_alone = 13932 

Commands details: 
total_CMD = 168736 
n_nop = 149378 
Read = 10192 
Write = 0 
L2_Alloc = 0 
L2_WB = 6308 
n_act = 1469 
n_pre = 1453 
n_ref = 0 
n_req = 11769 
total_req = 16500 

Dual Bus Interface Util: 
issued_total_row = 2922 
issued_total_col = 16500 
Row_Bus_Util =  0.017317 
CoL_Bus_Util = 0.097786 
Either_Row_CoL_Bus_Util = 0.114724 
Issued_on_Two_Bus_Simul_Util = 0.000379 
issued_two_Eff = 0.003306 
queue_avg = 0.604044 


dram_util_bins: 0 0 0 0 0 0 0 0 0 0
dram_eff_bins: 0 0 0 0 0 0 0 0 0 0
mrqq: max=24 avg=0.604044
Memory Partition 10: 
Cache L2_bank_020:
MSHR contents

Cache L2_bank_021:
MSHR contents

In Dram Latency Queue (total = 0): 
DRAM[10]: 16 bks, busW=4 BL=8 CL=16, tRRD=8 tCCD=2, tRCD=16 tRAS=37 tRP=16 tRC=52
n_cmd=168736 n_nop=148627 n_act=1517 n_pre=1501 n_ref_event=0 n_req=12296 n_rd=10676 n_rd_L2_A=0 n_write=0 n_wr_bk=6480 bw_util=0.2033
n_activity=105891 dram_eff=0.324
bk0: 712a 160723i bk1: 708a 160689i bk2: 676a 160706i bk3: 628a 161197i bk4: 636a 161405i bk5: 664a 161792i bk6: 728a 160892i bk7: 608a 161053i bk8: 620a 161890i bk9: 644a 161230i bk10: 600a 160560i bk11: 652a 161665i bk12: 708a 161060i bk13: 600a 160021i bk14: 744a 160397i bk15: 748a 159494i 

------------------------------------------------------------------------

Row_Buffer_Locality = 0.877928
Row_Buffer_Locality_read = 0.961596
Row_Buffer_Locality_write = 0.326543
Bank_Level_Parallism = 1.766513
Bank_Level_Parallism_Col = 1.561708
Bank_Level_Parallism_Ready = 1.104174
write_to_read_ratio_blp_rw_average = 0.468815
GrpLevelPara = 1.449175 

BW Util details:
bwutil = 0.203347 
total_CMD = 168736 
util_bw = 34312 
Wasted_Col = 36444 
Wasted_Row = 9535 
Idle = 88445 

BW Util Bottlenecks: 
RCDc_limit = 5355 
RCDWRc_limit = 7085 
WTRc_limit = 12160 
RTWc_limit = 14958 
CCDLc_limit = 17918 
rwq = 0 
CCDLc_limit_alone = 16367 
WTRc_limit_alone = 11444 
RTWc_limit_alone = 14123 

Commands details: 
total_CMD = 168736 
n_nop = 148627 
Read = 10676 
Write = 0 
L2_Alloc = 0 
L2_WB = 6480 
n_act = 1517 
n_pre = 1501 
n_ref = 0 
n_req = 12296 
total_req = 17156 

Dual Bus Interface Util: 
issued_total_row = 3018 
issued_total_col = 17156 
Row_Bus_Util =  0.017886 
CoL_Bus_Util = 0.101674 
Either_Row_CoL_Bus_Util = 0.119174 
Issued_on_Two_Bus_Simul_Util = 0.000385 
issued_two_Eff = 0.003232 
queue_avg = 0.647271 


dram_util_bins: 0 0 0 0 0 0 0 0 0 0
dram_eff_bins: 0 0 0 0 0 0 0 0 0 0
mrqq: max=20 avg=0.647271
Memory Partition 11: 
Cache L2_bank_022:
MSHR contents

Cache L2_bank_023:
MSHR contents

In Dram Latency Queue (total = 0): 
DRAM[11]: 16 bks, busW=4 BL=8 CL=16, tRRD=8 tCCD=2, tRCD=16 tRAS=37 tRP=16 tRC=52
n_cmd=168736 n_nop=149942 n_act=1477 n_pre=1461 n_ref_event=0 n_req=11350 n_rd=9824 n_rd_L2_A=0 n_write=0 n_wr_bk=6104 bw_util=0.1888
n_activity=100387 dram_eff=0.3173
bk0: 564a 161512i bk1: 628a 161935i bk2: 604a 160368i bk3: 616a 160948i bk4: 476a 162055i bk5: 704a 161035i bk6: 588a 162199i bk7: 656a 160491i bk8: 552a 161657i bk9: 632a 160968i bk10: 676a 161037i bk11: 576a 161091i bk12: 668a 162142i bk13: 652a 162153i bk14: 648a 161577i bk15: 584a 161893i 

------------------------------------------------------------------------

Row_Buffer_Locality = 0.871278
Row_Buffer_Locality_read = 0.958876
Row_Buffer_Locality_write = 0.307339
Bank_Level_Parallism = 1.734717
Bank_Level_Parallism_Col = 1.537802
Bank_Level_Parallism_Ready = 1.091772
write_to_read_ratio_blp_rw_average = 0.465717
GrpLevelPara = 1.434197 

BW Util details:
bwutil = 0.188792 
total_CMD = 168736 
util_bw = 31856 
Wasted_Col = 34522 
Wasted_Row = 9787 
Idle = 92571 

BW Util Bottlenecks: 
RCDc_limit = 5271 
RCDWRc_limit = 6926 
WTRc_limit = 11025 
RTWc_limit = 13703 
CCDLc_limit = 16648 
rwq = 0 
CCDLc_limit_alone = 15265 
WTRc_limit_alone = 10464 
RTWc_limit_alone = 12881 

Commands details: 
total_CMD = 168736 
n_nop = 149942 
Read = 9824 
Write = 0 
L2_Alloc = 0 
L2_WB = 6104 
n_act = 1477 
n_pre = 1461 
n_ref = 0 
n_req = 11350 
total_req = 15928 

Dual Bus Interface Util: 
issued_total_row = 2938 
issued_total_col = 15928 
Row_Bus_Util =  0.017412 
CoL_Bus_Util = 0.094396 
Either_Row_CoL_Bus_Util = 0.111381 
Issued_on_Two_Bus_Simul_Util = 0.000427 
issued_two_Eff = 0.003831 
queue_avg = 0.623376 


dram_util_bins: 0 0 0 0 0 0 0 0 0 0
dram_eff_bins: 0 0 0 0 0 0 0 0 0 0
mrqq: max=21 avg=0.623376

========= L2 cache stats =========
L2_cache_bank[0]: Access = 18548, Miss = 10996, Miss_rate = 0.593, Pending_hits = 838, Reservation_fails = 0
L2_cache_bank[1]: Access = 18420, Miss = 10857, Miss_rate = 0.589, Pending_hits = 846, Reservation_fails = 0
L2_cache_bank[2]: Access = 18763, Miss = 11248, Miss_rate = 0.599, Pending_hits = 905, Reservation_fails = 0
L2_cache_bank[3]: Access = 18326, Miss = 10877, Miss_rate = 0.594, Pending_hits = 869, Reservation_fails = 0
L2_cache_bank[4]: Access = 18974, Miss = 11105, Miss_rate = 0.585, Pending_hits = 910, Reservation_fails = 0
L2_cache_bank[5]: Access = 19009, Miss = 11132, Miss_rate = 0.586, Pending_hits = 926, Reservation_fails = 0
L2_cache_bank[6]: Access = 19044, Miss = 11276, Miss_rate = 0.592, Pending_hits = 907, Reservation_fails = 0
L2_cache_bank[7]: Access = 18879, Miss = 11391, Miss_rate = 0.603, Pending_hits = 840, Reservation_fails = 0
L2_cache_bank[8]: Access = 18986, Miss = 11384, Miss_rate = 0.600, Pending_hits = 877, Reservation_fails = 0
L2_cache_bank[9]: Access = 17943, Miss = 10747, Miss_rate = 0.599, Pending_hits = 789, Reservation_fails = 0
L2_cache_bank[10]: Access = 18160, Miss = 10686, Miss_rate = 0.588, Pending_hits = 785, Reservation_fails = 0
L2_cache_bank[11]: Access = 18566, Miss = 11128, Miss_rate = 0.599, Pending_hits = 866, Reservation_fails = 0
L2_cache_bank[12]: Access = 18894, Miss = 11290, Miss_rate = 0.598, Pending_hits = 805, Reservation_fails = 0
L2_cache_bank[13]: Access = 18226, Miss = 10780, Miss_rate = 0.591, Pending_hits = 864, Reservation_fails = 0
L2_cache_bank[14]: Access = 19656, Miss = 11644, Miss_rate = 0.592, Pending_hits = 895, Reservation_fails = 0
L2_cache_bank[15]: Access = 19195, Miss = 11488, Miss_rate = 0.598, Pending_hits = 921, Reservation_fails = 0
L2_cache_bank[16]: Access = 18613, Miss = 11110, Miss_rate = 0.597, Pending_hits = 817, Reservation_fails = 0
L2_cache_bank[17]: Access = 18197, Miss = 10938, Miss_rate = 0.601, Pending_hits = 806, Reservation_fails = 0
L2_cache_bank[18]: Access = 18515, Miss = 10974, Miss_rate = 0.593, Pending_hits = 821, Reservation_fails = 0
L2_cache_bank[19]: Access = 18748, Miss = 11296, Miss_rate = 0.603, Pending_hits = 838, Reservation_fails = 0
L2_cache_bank[20]: Access = 18990, Miss = 11451, Miss_rate = 0.603, Pending_hits = 867, Reservation_fails = 0
L2_cache_bank[21]: Access = 19464, Miss = 11686, Miss_rate = 0.600, Pending_hits = 962, Reservation_fails = 0
L2_cache_bank[22]: Access = 18300, Miss = 11031, Miss_rate = 0.603, Pending_hits = 859, Reservation_fails = 0
L2_cache_bank[23]: Access = 17984, Miss = 10761, Miss_rate = 0.598, Pending_hits = 777, Reservation_fails = 0
L2_total_cache_accesses = 448400
L2_total_cache_misses = 267276
L2_total_cache_miss_rate = 0.5961
L2_total_cache_pending_hits = 20590
L2_total_cache_reservation_fails = 0
L2_total_cache_breakdown:
	L2_cache_stats_breakdown[GLOBAL_ACC_R][HIT] = 160534
	L2_cache_stats_breakdown[GLOBAL_ACC_R][HIT_RESERVED] = 20590
	L2_cache_stats_breakdown[GLOBAL_ACC_R][MISS] = 30569
	L2_cache_stats_breakdown[GLOBAL_ACC_R][RESERVATION_FAIL] = 0
	L2_cache_stats_breakdown[GLOBAL_ACC_R][SECTOR_MISS] = 91707
	L2_cache_stats_breakdown[LOCAL_ACC_R][HIT] = 0
	L2_cache_stats_breakdown[LOCAL_ACC_R][HIT_RESERVED] = 0
	L2_cache_stats_breakdown[LOCAL_ACC_R][MISS] = 0
	L2_cache_stats_breakdown[LOCAL_ACC_R][RESERVATION_FAIL] = 0
	L2_cache_stats_breakdown[LOCAL_ACC_R][SECTOR_MISS] = 0
	L2_cache_stats_breakdown[CONST_ACC_R][HIT] = 0
	L2_cache_stats_breakdown[CONST_ACC_R][HIT_RESERVED] = 0
	L2_cache_stats_breakdown[CONST_ACC_R][MISS] = 0
	L2_cache_stats_breakdown[CONST_ACC_R][RESERVATION_FAIL] = 0
	L2_cache_stats_breakdown[CONST_ACC_R][SECTOR_MISS] = 0
	L2_cache_stats_breakdown[TEXTURE_ACC_R][HIT] = 0
	L2_cache_stats_breakdown[TEXTURE_ACC_R][HIT_RESERVED] = 0
	L2_cache_stats_breakdown[TEXTURE_ACC_R][MISS] = 0
	L2_cache_stats_breakdown[TEXTURE_ACC_R][RESERVATION_FAIL] = 0
	L2_cache_stats_breakdown[TEXTURE_ACC_R][SECTOR_MISS] = 0
	L2_cache_stats_breakdown[GLOBAL_ACC_W][HIT] = 0
	L2_cache_stats_breakdown[GLOBAL_ACC_W][HIT_RESERVED] = 0
	L2_cache_stats_breakdown[GLOBAL_ACC_W][MISS] = 31250
	L2_cache_stats_breakdown[GLOBAL_ACC_W][RESERVATION_FAIL] = 0
	L2_cache_stats_breakdown[GLOBAL_ACC_W][SECTOR_MISS] = 113750
	L2_cache_stats_breakdown[LOCAL_ACC_W][HIT] = 0
	L2_cache_stats_breakdown[LOCAL_ACC_W][HIT_RESERVED] = 0
	L2_cache_stats_breakdown[LOCAL_ACC_W][MISS] = 0
	L2_cache_stats_breakdown[LOCAL_ACC_W][RESERVATION_FAIL] = 0
	L2_cache_stats_breakdown[LOCAL_ACC_W][SECTOR_MISS] = 0
	L2_cache_stats_breakdown[L1_WRBK_ACC][HIT] = 0
	L2_cache_stats_breakdown[L1_WRBK_ACC][HIT_RESERVED] = 0
	L2_cache_stats_breakdown[L1_WRBK_ACC][MISS] = 0
	L2_cache_stats_breakdown[L1_WRBK_ACC][RESERVATION_FAIL] = 0
	L2_cache_stats_breakdown[L1_WRBK_ACC][SECTOR_MISS] = 0
	L2_cache_stats_breakdown[L2_WRBK_ACC][HIT] = 0
	L2_cache_stats_breakdown[L2_WRBK_ACC][HIT_RESERVED] = 0
	L2_cache_stats_breakdown[L2_WRBK_ACC][MISS] = 0
	L2_cache_stats_breakdown[L2_WRBK_ACC][RESERVATION_FAIL] = 0
	L2_cache_stats_breakdown[L2_WRBK_ACC][SECTOR_MISS] = 0
	L2_cache_stats_breakdown[INST_ACC_R][HIT] = 0
	L2_cache_stats_breakdown[INST_ACC_R][HIT_RESERVED] = 0
	L2_cache_stats_breakdown[INST_ACC_R][MISS] = 0
	L2_cache_stats_breakdown[INST_ACC_R][RESERVATION_FAIL] = 0
	L2_cache_stats_breakdown[INST_ACC_R][SECTOR_MISS] = 0
	L2_cache_stats_breakdown[L1_WR_ALLOC_R][HIT] = 0
	L2_cache_stats_breakdown[L1_WR_ALLOC_R][HIT_RESERVED] = 0
	L2_cache_stats_breakdown[L1_WR_ALLOC_R][MISS] = 0
	L2_cache_stats_breakdown[L1_WR_ALLOC_R][RESERVATION_FAIL] = 0
	L2_cache_stats_breakdown[L1_WR_ALLOC_R][SECTOR_MISS] = 0
	L2_cache_stats_breakdown[L2_WR_ALLOC_R][HIT] = 0
	L2_cache_stats_breakdown[L2_WR_ALLOC_R][HIT_RESERVED] = 0
	L2_cache_stats_breakdown[L2_WR_ALLOC_R][MISS] = 0
	L2_cache_stats_breakdown[L2_WR_ALLOC_R][RESERVATION_FAIL] = 0
	L2_cache_stats_breakdown[L2_WR_ALLOC_R][SECTOR_MISS] = 0
	L2_cache_stats_breakdown[GLOBAL_ACC_R][TOTAL_ACCESS] = 303400
	L2_cache_stats_breakdown[GLOBAL_ACC_W][TOTAL_ACCESS] = 145000
L2_total_cache_reservation_fail_breakdown:
L2_cache_data_port_util = 0.086
L2_cache_fill_port_util = 0.053

icnt_total_pkts_mem_to_simt=448400
icnt_total_pkts_simt_to_mem=448400
LD_mem_lat_dist  0 0 0 0 0 0 0 0 0 0 0 0 0 0 0 0 0 0 0 0 0 0 0 0 0 0 0
ST_mem_lat_dist  0 0 0 0 0 0 0 0 0 0 0 0 0 0 0 0 0 0 0 0 0 0 0 0 0 0 0
----------------------------Interconnect-DETAILS--------------------------------
Class 0:
Packet latency average = 6.92202
	minimum = 5
	maximum = 75
Network latency average = 6.92202
	minimum = 5
	maximum = 75
Slowest packet = 4324
Flit latency average = 6.92202
	minimum = 5
	maximum = 75
Slowest flit = 4324
Fragmentation average = 0
	minimum = 0
	maximum = 0
Injected packet rate average = 0.180324
	minimum = 0.0501882 (at node 19)
	maximum = 0.238394 (at node 5)
Accepted packet rate average = 0.180324
	minimum = 0.0501882 (at node 19)
	maximum = 0.238394 (at node 5)
Injected flit rate average = 0.180324
	minimum = 0.0501882 (at node 19)
	maximum = 0.238394 (at node 5)
Accepted flit rate average= 0.180324
	minimum = 0.0501882 (at node 19)
	maximum = 0.238394 (at node 5)
Injected packet length average = 1
Accepted packet length average = 1
Total in-flight flits = 0 (0 measured)
====== Overall Traffic Statistics ======
====== Traffic class 0 ======
Packet latency average = 6.92202 (1 samples)
	minimum = 5 (1 samples)
	maximum = 75 (1 samples)
Network latency average = 6.92202 (1 samples)
	minimum = 5 (1 samples)
	maximum = 75 (1 samples)
Flit latency average = 6.92202 (1 samples)
	minimum = 5 (1 samples)
	maximum = 75 (1 samples)
Fragmentation average = 0 (1 samples)
	minimum = 0 (1 samples)
	maximum = 0 (1 samples)
Injected packet rate average = 0.180324 (1 samples)
	minimum = 0.0501882 (1 samples)
	maximum = 0.238394 (1 samples)
Accepted packet rate average = 0.180324 (1 samples)
	minimum = 0.0501882 (1 samples)
	maximum = 0.238394 (1 samples)
Injected flit rate average = 0.180324 (1 samples)
	minimum = 0.0501882 (1 samples)
	maximum = 0.238394 (1 samples)
Accepted flit rate average = 0.180324 (1 samples)
	minimum = 0.0501882 (1 samples)
	maximum = 0.238394 (1 samples)
Injected packet size average = 1 (1 samples)
Accepted packet size average = 1 (1 samples)
Hops average = 1 (1 samples)
----------------------------END-of-Interconnect-DETAILS-------------------------


gpgpu_simulation_time = 0 days, 0 hrs, 0 min, 49 sec (49 sec)
gpgpu_simulation_rate = 1189656 (inst/sec)
gpgpu_simulation_rate = 1951 (cycle/sec)
gpgpu_silicon_slowdown = 726294x
GPGPU-Sim: synchronize waiting for inactive GPU simulation
GPGPU-Sim API: Stream Manager State
GPGPU-Sim: detected inactive GPU simulation thread

1x GPU_laplace3d: 48835.218750 (ms) 

Copy u2 to host: 38.396000 (ms) 

1x Gold_laplace3d: 1.376000 (ms) 
 

 rms error = 0.000000 
CUDA_SAFE_CALL( cudaFree(d_u1) );
CUDA_SAFE_CALL( cudaFree(d_u2) );
free(h_u1);
free(h_u2);
free(h_u3);
GPGPU-Sim: *** exit detected ***
