

        *** GPGPU-Sim Simulator Version 4.0.0  [build gpgpu-sim_git-commit-90ec3399763d7c8512cfe7dc193473086c38ca38_modified_0.0] ***


GPGPU-Sim PTX: simulation mode 0 (can change with PTX_SIM_MODE_FUNC environment variable:
               1=functional simulation only, 0=detailed performance simulator)
GPGPU-Sim PTX: overriding embedded ptx with ptx file (PTX_SIM_USE_PTX_FILE is set)
GPGPU-Sim: Configuration options:

-save_embedded_ptx                      0 # saves ptx files embedded in binary as <n>.ptx
-keep                                   0 # keep intermediate files created by GPGPU-Sim when interfacing with external programs
-gpgpu_ptx_save_converted_ptxplus                    0 # Saved converted ptxplus to a file
-gpgpu_occupancy_sm_number                   62 # The SM number to pass to ptxas when getting register usage for computing GPU occupancy. This parameter is required in the config.
-ptx_opcode_latency_int      4,13,4,5,145,32 # Opcode latencies for integers <ADD,MAX,MUL,MAD,DIV,SHFL>Default 1,1,19,25,145,32
-ptx_opcode_latency_fp          4,13,4,4,39 # Opcode latencies for single precision floating points <ADD,MAX,MUL,MAD,DIV>Default 1,1,1,1,30
-ptx_opcode_latency_dp         8,19,8,8,330 # Opcode latencies for double precision floating points <ADD,MAX,MUL,MAD,DIV>Default 8,8,8,8,335
-ptx_opcode_latency_sfu                   20 # Opcode latencies for SFU instructionsDefault 8
-ptx_opcode_latency_tesnor                   64 # Opcode latencies for Tensor instructionsDefault 64
-ptx_opcode_initiation_int          1,1,1,1,4,4 # Opcode initiation intervals for integers <ADD,MAX,MUL,MAD,DIV,SHFL>Default 1,1,4,4,32,4
-ptx_opcode_initiation_fp            1,2,1,1,4 # Opcode initiation intervals for single precision floating points <ADD,MAX,MUL,MAD,DIV>Default 1,1,1,1,5
-ptx_opcode_initiation_dp          8,8,8,8,130 # Opcode initiation intervals for double precision floating points <ADD,MAX,MUL,MAD,DIV>Default 8,8,8,8,130
-ptx_opcode_initiation_sfu                    4 # Opcode initiation intervals for sfu instructionsDefault 8
-ptx_opcode_initiation_tensor                   64 # Opcode initiation intervals for tensor instructionsDefault 64
-cdp_latency         7200,8000,100,12000,1600 # CDP API latency <cudaStreamCreateWithFlags, cudaGetParameterBufferV2_init_perWarp, cudaGetParameterBufferV2_perKernel, cudaLaunchDeviceV2_init_perWarp, cudaLaunchDevicV2_perKernel>Default 7200,8000,100,12000,1600
-network_mode                           1 # Interconnection network mode
-inter_config_file   config_pascal_islip.icnt # Interconnection network config file
-icnt_in_buffer_limit                   64 # in_buffer_limit
-icnt_out_buffer_limit                   64 # out_buffer_limit
-icnt_subnets                           2 # subnets
-icnt_arbiter_algo                      1 # arbiter_algo
-icnt_verbose                           0 # inct_verbose
-icnt_grant_cycles                      1 # grant_cycles
-gpgpu_ptx_use_cuobjdump                    1 # Use cuobjdump to extract ptx and sass from binaries
-gpgpu_experimental_lib_support                    0 # Try to extract code from cuda libraries [Broken because of unknown cudaGetExportTable]
-checkpoint_option                      0 #  checkpointing flag (0 = no checkpoint)
-checkpoint_kernel                      1 #  checkpointing during execution of which kernel (1- 1st kernel)
-checkpoint_CTA                         0 #  checkpointing after # of CTA (< less than total CTA)
-resume_option                          0 #  resume flag (0 = no resume)
-resume_kernel                          0 #  Resume from which kernel (1= 1st kernel)
-resume_CTA                             0 #  resume from which CTA 
-checkpoint_CTA_t                       0 #  resume from which CTA 
-checkpoint_insn_Y                      0 #  resume from which CTA 
-gpgpu_ptx_convert_to_ptxplus                    0 # Convert SASS (native ISA) to ptxplus and run ptxplus
-gpgpu_ptx_force_max_capability                   61 # Force maximum compute capability
-gpgpu_ptx_inst_debug_to_file                    0 # Dump executed instructions' debug information to file
-gpgpu_ptx_inst_debug_file       inst_debug.txt # Executed instructions' debug output file
-gpgpu_ptx_inst_debug_thread_uid                    1 # Thread UID for executed instructions' debug output
-gpgpu_simd_model                       1 # 1 = post-dominator
-gpgpu_shader_core_pipeline              2048:32 # shader core pipeline config, i.e., {<nthread>:<warpsize>}
-gpgpu_tex_cache:l1  N:16:128:24,L:R:m:N:L,T:128:4,128:2 # per-shader L1 texture cache  (READ-ONLY) config  {<nsets>:<bsize>:<assoc>,<rep>:<wr>:<alloc>:<wr_alloc>,<mshr>:<N>:<merge>,<mq>:<rf>}
-gpgpu_const_cache:l1 N:128:64:2,L:R:f:N:L,S:2:64,4 # per-shader L1 constant memory cache  (READ-ONLY) config  {<nsets>:<bsize>:<assoc>,<rep>:<wr>:<alloc>:<wr_alloc>,<mshr>:<N>:<merge>,<mq>} 
-gpgpu_cache:il1     N:8:128:4,L:R:f:N:L,S:2:48,4 # shader L1 instruction cache config  {<nsets>:<bsize>:<assoc>,<rep>:<wr>:<alloc>:<wr_alloc>,<mshr>:<N>:<merge>,<mq>} 
-gpgpu_cache:dl1     S:4:128:96,L:L:s:N:L,A:256:8,16:0,32 # per-shader L1 data cache config  {<nsets>:<bsize>:<assoc>,<rep>:<wr>:<alloc>:<wr_alloc>,<mshr>:<N>:<merge>,<mq> | none}
-gpgpu_l1_banks                         2 # The number of L1 cache banks
-gpgpu_l1_banks_byte_interleaving                   32 # l1 banks byte interleaving granularity
-gpgpu_l1_banks_hashing_function                    0 # l1 banks hashing function
-gpgpu_l1_latency                      82 # L1 Hit Latency
-gpgpu_smem_latency                    24 # smem Latency
-gpgpu_cache:dl1PrefL1 S:4:128:96,L:L:s:N:L,A:256:8,16:0,32 # per-shader L1 data cache config  {<nsets>:<bsize>:<assoc>,<rep>:<wr>:<alloc>:<wr_alloc>,<mshr>:<N>:<merge>,<mq> | none}
-gpgpu_cache:dl1PrefShared S:4:128:96,L:L:s:N:L,A:256:8,16:0,32 # per-shader L1 data cache config  {<nsets>:<bsize>:<assoc>,<rep>:<wr>:<alloc>:<wr_alloc>,<mshr>:<N>:<merge>,<mq> | none}
-gpgpu_gmem_skip_L1D                    1 # global memory access skip L1D cache (implements -Xptxas -dlcm=cg, default=no skip)
-gpgpu_perfect_mem                      0 # enable perfect memory mode (no cache miss)
-n_regfile_gating_group                    4 # group of lanes that should be read/written together)
-gpgpu_clock_gated_reg_file                    0 # enable clock gated reg file for power calculations
-gpgpu_clock_gated_lanes                    0 # enable clock gated lanes for power calculations
-gpgpu_shader_registers                65536 # Number of registers per shader core. Limits number of concurrent CTAs. (default 8192)
-gpgpu_registers_per_block                 8192 # Maximum number of registers per CTA. (default 8192)
-gpgpu_ignore_resources_limitation                    1 # gpgpu_ignore_resources_limitation (default 0)
-gpgpu_shader_cta                      32 # Maximum number of concurrent CTAs in shader (default 8)
-gpgpu_num_cta_barriers                   16 # Maximum number of named barriers per CTA (default 16)
-gpgpu_n_clusters                      28 # number of processing clusters
-gpgpu_n_cores_per_cluster                    1 # number of simd cores per cluster
-gpgpu_n_cluster_ejection_buffer_size                   32 # number of packets in ejection buffer
-gpgpu_n_ldst_response_buffer_size                    2 # number of response packets in ld/st unit ejection buffer
-gpgpu_shmem_per_block                49152 # Size of shared memory per thread block or CTA (default 48kB)
-gpgpu_shmem_size                   98304 # Size of shared memory per shader core (default 16kB)
-gpgpu_adaptive_cache_config                    0 # adaptive_cache_config
-gpgpu_shmem_sizeDefault                98304 # Size of shared memory per shader core (default 16kB)
-gpgpu_shmem_size_PrefL1                98304 # Size of shared memory per shader core (default 16kB)
-gpgpu_shmem_size_PrefShared                98304 # Size of shared memory per shader core (default 16kB)
-gpgpu_shmem_num_banks                   32 # Number of banks in the shared memory in each shader core (default 16)
-gpgpu_shmem_limited_broadcast                    0 # Limit shared memory to do one broadcast per cycle (default on)
-gpgpu_shmem_warp_parts                    1 # Number of portions a warp is divided into for shared memory bank conflict check 
-gpgpu_mem_unit_ports                    1 # The number of memory transactions allowed per core cycle
-gpgpu_shmem_warp_parts                    1 # Number of portions a warp is divided into for shared memory bank conflict check 
-gpgpu_warpdistro_shader                   -1 # Specify which shader core to collect the warp size distribution from
-gpgpu_warp_issue_shader                    0 # Specify which shader core to collect the warp issue distribution from
-gpgpu_local_mem_map                    1 # Mapping from local memory space address to simulated GPU physical address space (default = enabled)
-gpgpu_num_reg_banks                   16 # Number of register banks (default = 8)
-gpgpu_reg_bank_use_warp_id                    0 # Use warp ID in mapping registers to banks (default = off)
-gpgpu_sub_core_model                    1 # Sub Core Volta/Pascal model (default = off)
-gpgpu_enable_specialized_operand_collector                    0 # enable_specialized_operand_collector
-gpgpu_operand_collector_num_units_sp                    4 # number of collector units (default = 4)
-gpgpu_operand_collector_num_units_dp                    0 # number of collector units (default = 0)
-gpgpu_operand_collector_num_units_sfu                    4 # number of collector units (default = 4)
-gpgpu_operand_collector_num_units_int                    0 # number of collector units (default = 0)
-gpgpu_operand_collector_num_units_tensor_core                    4 # number of collector units (default = 4)
-gpgpu_operand_collector_num_units_mem                    2 # number of collector units (default = 2)
-gpgpu_operand_collector_num_units_gen                    8 # number of collector units (default = 0)
-gpgpu_operand_collector_num_in_ports_sp                    1 # number of collector unit in ports (default = 1)
-gpgpu_operand_collector_num_in_ports_dp                    0 # number of collector unit in ports (default = 0)
-gpgpu_operand_collector_num_in_ports_sfu                    1 # number of collector unit in ports (default = 1)
-gpgpu_operand_collector_num_in_ports_int                    0 # number of collector unit in ports (default = 0)
-gpgpu_operand_collector_num_in_ports_tensor_core                    1 # number of collector unit in ports (default = 1)
-gpgpu_operand_collector_num_in_ports_mem                    1 # number of collector unit in ports (default = 1)
-gpgpu_operand_collector_num_in_ports_gen                    8 # number of collector unit in ports (default = 0)
-gpgpu_operand_collector_num_out_ports_sp                    1 # number of collector unit in ports (default = 1)
-gpgpu_operand_collector_num_out_ports_dp                    0 # number of collector unit in ports (default = 0)
-gpgpu_operand_collector_num_out_ports_sfu                    1 # number of collector unit in ports (default = 1)
-gpgpu_operand_collector_num_out_ports_int                    0 # number of collector unit in ports (default = 0)
-gpgpu_operand_collector_num_out_ports_tensor_core                    1 # number of collector unit in ports (default = 1)
-gpgpu_operand_collector_num_out_ports_mem                    1 # number of collector unit in ports (default = 1)
-gpgpu_operand_collector_num_out_ports_gen                    8 # number of collector unit in ports (default = 0)
-gpgpu_coalesce_arch                   61 # Coalescing arch (GT200 = 13, Fermi = 20)
-gpgpu_num_sched_per_core                    4 # Number of warp schedulers per core
-gpgpu_max_insn_issue_per_warp                    2 # Max number of instructions that can be issued per warp in one cycle by scheduler (either 1 or 2)
-gpgpu_dual_issue_diff_exec_units                    1 # should dual issue use two different execution unit resources (Default = 1)
-gpgpu_simt_core_sim_order                    1 # Select the simulation order of cores in a cluster (0=Fix, 1=Round-Robin)
-gpgpu_pipeline_widths 4,0,0,4,4,4,0,0,4,4,8 # Pipeline widths ID_OC_SP,ID_OC_DP,ID_OC_INT,ID_OC_SFU,ID_OC_MEM,OC_EX_SP,OC_EX_DP,OC_EX_INT,OC_EX_SFU,OC_EX_MEM,EX_WB,ID_OC_TENSOR_CORE,OC_EX_TENSOR_CORE
-gpgpu_tensor_core_avail                    0 # Tensor Core Available (default=0)
-gpgpu_num_sp_units                     4 # Number of SP units (default=1)
-gpgpu_num_dp_units                     0 # Number of DP units (default=0)
-gpgpu_num_int_units                    0 # Number of INT units (default=0)
-gpgpu_num_sfu_units                    4 # Number of SF units (default=1)
-gpgpu_num_tensor_core_units                    0 # Number of tensor_core units (default=1)
-gpgpu_num_mem_units                    1 # Number if ldst units (default=1) WARNING: not hooked up to anything
-gpgpu_scheduler                      gto # Scheduler configuration: < lrr | gto | two_level_active > If two_level_active:<num_active_warps>:<inner_prioritization>:<outer_prioritization>For complete list of prioritization values see shader.h enum scheduler_prioritization_typeDefault: gto
-gpgpu_concurrent_kernel_sm                    0 # Support concurrent kernels on a SM (default = disabled)
-gpgpu_perfect_inst_const_cache                    1 # perfect inst and const cache mode, so all inst and const hits in the cache(default = disabled)
-gpgpu_inst_fetch_throughput                    8 # the number of fetched intruction per warp each cycle
-gpgpu_reg_file_port_throughput                    2 # the number ports of the register file
-specialized_unit_1         0,4,4,4,4,BRA # specialized unit config {<enabled>,<num_units>:<latency>:<initiation>,<ID_OC_SPEC>:<OC_EX_SPEC>,<NAME>}
-specialized_unit_2         0,4,4,4,4,BRA # specialized unit config {<enabled>,<num_units>:<latency>:<initiation>,<ID_OC_SPEC>:<OC_EX_SPEC>,<NAME>}
-specialized_unit_3         0,4,4,4,4,BRA # specialized unit config {<enabled>,<num_units>:<latency>:<initiation>,<ID_OC_SPEC>:<OC_EX_SPEC>,<NAME>}
-specialized_unit_4         0,4,4,4,4,BRA # specialized unit config {<enabled>,<num_units>:<latency>:<initiation>,<ID_OC_SPEC>:<OC_EX_SPEC>,<NAME>}
-specialized_unit_5         0,4,4,4,4,BRA # specialized unit config {<enabled>,<num_units>:<latency>:<initiation>,<ID_OC_SPEC>:<OC_EX_SPEC>,<NAME>}
-specialized_unit_6         0,4,4,4,4,BRA # specialized unit config {<enabled>,<num_units>:<latency>:<initiation>,<ID_OC_SPEC>:<OC_EX_SPEC>,<NAME>}
-specialized_unit_7         0,4,4,4,4,BRA # specialized unit config {<enabled>,<num_units>:<latency>:<initiation>,<ID_OC_SPEC>:<OC_EX_SPEC>,<NAME>}
-specialized_unit_8         0,4,4,4,4,BRA # specialized unit config {<enabled>,<num_units>:<latency>:<initiation>,<ID_OC_SPEC>:<OC_EX_SPEC>,<NAME>}
-gpgpu_perf_sim_memcpy                    1 # Fill the L2 cache on memcpy
-gpgpu_simple_dram_model                    0 # simple_dram_model with fixed latency and BW
-gpgpu_dram_scheduler                    1 # 0 = fifo, 1 = FR-FCFS (defaul)
-gpgpu_dram_partition_queues          32:32:32:32 # i2$:$2d:d2$:$2i
-l2_ideal                               0 # Use a ideal L2 cache that always hit
-gpgpu_cache:dl2     S:64:128:16,L:B:m:L:P,A:256:64,16:0,32 # unified banked L2 data cache config  {<nsets>:<bsize>:<assoc>,<rep>:<wr>:<alloc>:<wr_alloc>,<mshr>:<N>:<merge>,<mq>}
-gpgpu_cache:dl2_texture_only                    0 # L2 cache used for texture only
-gpgpu_n_mem                           12 # number of memory modules (e.g. memory controllers) in gpu
-gpgpu_n_sub_partition_per_mchannel                    2 # number of memory subpartition in each memory module
-gpgpu_n_mem_per_ctrlr                    1 # number of memory chips per memory controller
-gpgpu_memlatency_stat                   14 # track and display latency statistics 0x2 enables MC, 0x4 enables queue logs
-gpgpu_frfcfs_dram_sched_queue_size                   64 # 0 = unlimited (default); # entries per chip
-gpgpu_dram_return_queue_size                   64 # 0 = unlimited (default); # entries per chip
-gpgpu_dram_buswidth                    4 # default = 4 bytes (8 bytes per cycle at DDR)
-gpgpu_dram_burst_length                    8 # Burst length of each DRAM request (default = 4 data bus cycle)
-dram_data_command_freq_ratio                    4 # Frequency ratio between DRAM data bus and command bus (default = 2 times, i.e. DDR)
-gpgpu_dram_timing_opt nbk=16:CCD=2:RRD=8:RCD=16:RAS=37:RP=16:RC=52: CL=16:WL=6:CDLR=7:WR=16:nbkgrp=4:CCDL=4:RTPL=3 # DRAM timing parameters = {nbk:tCCD:tRRD:tRCD:tRAS:tRP:tRC:CL:WL:tCDLR:tWR:nbkgrp:tCCDL:tRTPL}
-gpgpu_l2_rop_latency                  120 # ROP queue latency (default 85)
-dram_latency                         100 # DRAM latency (default 30)
-dram_dual_bus_interface                    0 # dual_bus_interface (default = 0) 
-dram_bnk_indexing_policy                    0 # dram_bnk_indexing_policy (0 = normal indexing, 1 = Xoring with the higher bits) (Default = 0)
-dram_bnkgrp_indexing_policy                    1 # dram_bnkgrp_indexing_policy (0 = take higher bits, 1 = take lower bits) (Default = 0)
-dram_seperate_write_queue_enable                    0 # Seperate_Write_Queue_Enable
-dram_write_queue_size             32:28:16 # Write_Queue_Size
-dram_elimnate_rw_turnaround                    0 # elimnate_rw_turnaround i.e set tWTR and tRTW = 0
-icnt_flit_size                        40 # icnt_flit_size
-gpgpu_mem_addr_mapping dramid@8;00000000.00000000.00000000.00000000.0000RRRR.RRRRRRRR.RBBBCCCC.BCCSSSSS # mapping memory address to dram model {dramid@<start bit>;<memory address map>}
-gpgpu_mem_addr_test                    0 # run sweep test to check address mapping for aliased address
-gpgpu_mem_address_mask                    1 # 0 = old addressing mask, 1 = new addressing mask, 2 = new add. mask + flipped bank sel and chip sel bits
-gpgpu_memory_partition_indexing                    4 # 0 = no indexing, 1 = bitwise xoring, 2 = IPoly, 3 = custom indexing
-gpuwattch_xml_file         gpuwattch.xml # GPUWattch XML file
-power_simulation_enabled                    0 # Turn on power simulator (1=On, 0=Off)
-power_per_cycle_dump                    0 # Dump detailed power output each cycle
-power_trace_enabled                    0 # produce a file for the power trace (1=On, 0=Off)
-power_trace_zlevel                     6 # Compression level of the power trace output log (0=no comp, 9=highest)
-steady_power_levels_enabled                    0 # produce a file for the steady power levels (1=On, 0=Off)
-steady_state_definition                  8:4 # allowed deviation:number of samples
-gpgpu_max_cycle                        0 # terminates gpu simulation early (0 = no limit)
-gpgpu_max_insn                 100000000 # terminates gpu simulation early (0 = no limit)
-gpgpu_max_cta                          0 # terminates gpu simulation early (0 = no limit)
-gpgpu_max_completed_cta                    0 # terminates gpu simulation early (0 = no limit)
-gpgpu_runtime_stat                   500 # display runtime statistics such as dram utilization {<freq>:<flag>}
-liveness_message_freq                    1 # Minimum number of seconds between simulation liveness messages (0 = always print)
-gpgpu_compute_capability_major                    6 # Major compute capability version number
-gpgpu_compute_capability_minor                    1 # Minor compute capability version number
-gpgpu_flush_l1_cache                    1 # Flush L1 cache at the end of each kernel call
-gpgpu_flush_l2_cache                    0 # Flush L2 cache at the end of each kernel call
-gpgpu_deadlock_detect                    1 # Stop the simulation at deadlock (1=on (default), 0=off)
-gpgpu_ptx_instruction_classification                    0 # if enabled will classify ptx instruction types per kernel (Max 255 kernels now)
-gpgpu_ptx_sim_mode                     0 # Select between Performance (default) or Functional simulation (1)
-gpgpu_clock_domains 1417.0:1417.0:1417.0:2500.0 # Clock Domain Frequencies in MhZ {<Core Clock>:<ICNT Clock>:<L2 Clock>:<DRAM Clock>}
-gpgpu_max_concurrent_kernel                    8 # maximum kernels that can run concurrently on GPU
-gpgpu_cflog_interval                    0 # Interval between each snapshot in control flow logger
-visualizer_enabled                     0 # Turn on visualizer output (1=On, 0=Off)
-visualizer_outputfile                 NULL # Specifies the output log file for visualizer
-visualizer_zlevel                      6 # Compression level of the visualizer output log (0=no comp, 9=highest)
-gpgpu_stack_size_limit                 1024 # GPU thread stack size
-gpgpu_heap_size_limit              8388608 # GPU malloc heap size 
-gpgpu_runtime_sync_depth_limit                    2 # GPU device runtime synchronize depth
-gpgpu_runtime_pending_launch_count_limit                 2048 # GPU device runtime pending launch count
-trace_enabled                          0 # Turn on traces
-trace_components                    none # comma seperated list of traces to enable. Complete list found in trace_streams.tup. Default none
-trace_sampling_core                    0 # The core which is printed using CORE_DPRINTF. Default 0
-trace_sampling_memory_partition                   -1 # The memory partition which is printed using MEMPART_DPRINTF. Default -1 (i.e. all)
-enable_ptx_file_line_stats                    1 # Turn on PTX source line statistic profiling. (1 = On)
-ptx_line_stats_filename gpgpu_inst_stats.txt # Output file for PTX source line statistics.
-gpgpu_kernel_launch_latency                 5000 # Kernel launch latency in cycles. Default: 0
-gpgpu_cdp_enabled                      0 # Turn on CDP
-gpgpu_TB_launch_latency                    0 # thread block launch latency in cycles. Default: 0
DRAM Timing Options:
nbk                                    16 # number of banks
CCD                                     2 # column to column delay
RRD                                     8 # minimal delay between activation of rows in different banks
RCD                                    16 # row to column delay
RAS                                    37 # time needed to activate row
RP                                     16 # time needed to precharge (deactivate) row
RC                                     52 # row cycle time
CDLR                                    7 # switching from write to read (changes tWTR)
WR                                     16 # last data-in to row precharge
CL                                     16 # CAS latency
WL                                      6 # Write latency
nbkgrp                                  4 # number of bank groups
CCDL                                    4 # column to column delay between accesses to different bank groups
RTPL                                    3 # read to precharge delay between accesses to different bank groups
Total number of memory sub partition = 24
addr_dec_mask[CHIP]  = 0000000000000000 	high:64 low:0
addr_dec_mask[BK]    = 0000000000007080 	high:15 low:7
addr_dec_mask[ROW]   = 000000000fff8000 	high:28 low:15
addr_dec_mask[COL]   = 0000000000000f7f 	high:12 low:0
addr_dec_mask[BURST] = 000000000000001f 	high:5 low:0
sub_partition_id_mask = 0000000000000080
GPGPU-Sim uArch: clock freqs: 1417000000.000000:1417000000.000000:1417000000.000000:2500000000.000000
GPGPU-Sim uArch: clock periods: 0.00000000070571630205:0.00000000070571630205:0.00000000070571630205:0.00000000040000000000
*** Initializing Memory Statistics ***
GPGPU-Sim uArch: interconnect node map (shaderID+MemID to icntID)
GPGPU-Sim uArch: Memory nodes ID start from index: 28
GPGPU-Sim uArch:    0   1   2   3   4   5   6
GPGPU-Sim uArch:    7   8   9  10  11  12  13
GPGPU-Sim uArch:   14  15  16  17  18  19  20
GPGPU-Sim uArch:   21  22  23  24  25  26  27
GPGPU-Sim uArch:   28  29  30  31  32  33  34
GPGPU-Sim uArch:   35  36  37  38  39  40  41
GPGPU-Sim uArch:   42  43  44  45  46  47  48
GPGPU-Sim uArch:   49  50  51
GPGPU-Sim uArch: interconnect node reverse map (icntID to shaderID+MemID)
GPGPU-Sim uArch: Memory nodes start from ID: 28
GPGPU-Sim uArch:    0   1   2   3   4   5   6
GPGPU-Sim uArch:    7   8   9  10  11  12  13
GPGPU-Sim uArch:   14  15  16  17  18  19  20
GPGPU-Sim uArch:   21  22  23  24  25  26  27
GPGPU-Sim uArch:   28  29  30  31  32  33  34
GPGPU-Sim uArch:   35  36  37  38  39  40  41
GPGPU-Sim uArch:   42  43  44  45  46  47  48
GPGPU-Sim uArch:   49  50  51
34d8dad98b55ee7ec7d41e3675093f3e  /root/test/NN/ispass-2009-NN
Extracting PTX file and ptxas options    1: ispass-2009-NN.1.sm_30.ptx -arch=sm_30
Extracting PTX file and ptxas options    2: ispass-2009-NN.2.sm_35.ptx -arch=sm_35
Extracting PTX file and ptxas options    3: ispass-2009-NN.3.sm_50.ptx -arch=sm_50
Extracting PTX file and ptxas options    4: ispass-2009-NN.4.sm_60.ptx -arch=sm_60
Extracting PTX file and ptxas options    5: ispass-2009-NN.5.sm_62.ptx -arch=sm_62
GPGPU-Sim uArch: performance model initialization complete.
self exe links to: /root/test/NN/ispass-2009-NN
self exe links to: /root/test/NN/ispass-2009-NN
10.1
GPGPU-Sim PTX: __cudaRegisterFatBinary, fat_cubin_handle = 1, filename=default
self exe links to: /root/test/NN/ispass-2009-NN
Running md5sum using "md5sum /root/test/NN/ispass-2009-NN "
self exe links to: /root/test/NN/ispass-2009-NN
Extracting specific PTX file named ispass-2009-NN.1.sm_30.ptx 
Extracting specific PTX file named ispass-2009-NN.2.sm_35.ptx 
Extracting specific PTX file named ispass-2009-NN.3.sm_50.ptx 
Extracting specific PTX file named ispass-2009-NN.4.sm_60.ptx 
Extracting specific PTX file named ispass-2009-NN.5.sm_62.ptx 
GPGPU-Sim PTX: __cudaRegisterFunction _Z18executeFourthLayerPfS_S_ : hostFun 0x0x401a90, fat_cubin_handle = 1
GPGPU-Sim PTX: Parsing ispass-2009-NN.1.sm_30.ptx
GPGPU-Sim PTX: allocating constant region for "kernelTemplate" from 0x100 to 0x164 (global memory space) 1
GPGPU-Sim PTX: allocating constant region for "kernelTemplate2" from 0x180 to 0x1e4 (global memory space) 2
GPGPU-Sim PTX: instruction assembly for function '_Z17executeFirstLayerPfS_S_'...   done.
GPGPU-Sim PTX: instruction assembly for function '_Z18executeSecondLayerPfS_S_'...   done.
GPGPU-Sim PTX: instruction assembly for function '_Z17executeThirdLayerPfS_S_'...   done.
GPGPU-Sim PTX: instruction assembly for function '_Z18executeFourthLayerPfS_S_'...   done.
GPGPU-Sim PTX: finished parsing EMBEDDED .ptx file ispass-2009-NN.1.sm_30.ptx
GPGPU-Sim PTX: Parsing ispass-2009-NN.2.sm_35.ptx
GPGPU-Sim PTX: Warning kernelTemplate was declared previous at ispass-2009-NN.1.sm_30.ptx:14 skipping new declaration
GPGPU-Sim PTX: Warning kernelTemplate2 was declared previous at ispass-2009-NN.1.sm_30.ptx:15 skipping new declaration
GPGPU-Sim PTX: Warning %p0 was declared previous at ispass-2009-NN.1.sm_30.ptx:23 skipping new declaration
GPGPU-Sim PTX: Warning %p1 was declared previous at ispass-2009-NN.1.sm_30.ptx:23 skipping new declaration
GPGPU-Sim PTX: Warning %p2 was declared previous at ispass-2009-NN.1.sm_30.ptx:23 skipping new declaration
GPGPU-Sim PTX: Warning %p3 was declared previous at ispass-2009-NN.1.sm_30.ptx:23 skipping new declaration
GPGPU-Sim PTX: Warning %f0 was declared previous at ispass-2009-NN.1.sm_30.ptx:24 skipping new declaration
GPGPU-Sim PTX: Warning %f1 was declared previous at ispass-2009-NN.1.sm_30.ptx:24 skipping new declaration
GPGPU-Sim PTX: Warning %f2 was declared previous at ispass-2009-NN.1.sm_30.ptx:24 skipping new declaration
GPGPU-Sim PTX: Warning %f3 was declared previous at ispass-2009-NN.1.sm_30.ptx:24 skipping new declaration
GPGPU-Sim PTX: Warning %f4 was declared previous at ispass-2009-NN.1.sm_30.ptx:24 skipping new declaration
GPGPU-Sim PTX: Warning %f5 was declared previous at ispass-2009-NN.1.sm_30.ptx:24 skipping new declaration
GPGPU-Sim PTX: Warning %f6 was declared previous at ispass-2009-NN.1.sm_30.ptx:24 skipping new declaration
GPGPU-Sim PTX: Warning %f7 was declared previous at ispass-2009-NN.1.sm_30.ptx:24 skipping new declaration
GPGPU-Sim PTX: Warning %f8 was declared previous at ispass-2009-NN.1.sm_30.ptx:24 skipping new declaration
GPGPU-Sim PTX: Warning %f9 was declared previous at ispass-2009-NN.1.sm_30.ptx:24 skipping new declaration
GPGPU-Sim PTX: Warning %f10 was declared previous at ispass-2009-NN.1.sm_30.ptx:24 skipping new declaration
GPGPU-Sim PTX: Warning %f11 was declared previous at ispass-2009-NN.1.sm_30.ptx:24 skipping new declaration
GPGPU-Sim PTX: Warning %f12 was declared previous at ispass-2009-NN.1.sm_30.ptx:24 skipping new declaration
GPGPU-Sim PTX: Warning %f13 was declared previous at ispass-2009-NN.1.sm_30.ptx:24 skipping new declaration
GPGPU-Sim PTX: Warning %f14 was declared previous at ispass-2009-NN.1.sm_30.ptx:24 skipping new declaration
GPGPU-Sim PTX: Warning %f15 was declared previous at ispass-2009-NN.1.sm_30.ptx:24 skipping new declaration
GPGPU-Sim PTX: Warning %f16 was declared previous at ispass-2009-NN.1.sm_30.ptx:24 skipping new declaration
GPGPU-Sim PTX: Warning %f17 was declared previous at ispass-2009-NN.1.sm_30.ptx:24 skipping new declaration
GPGPU-Sim PTX: Warning %f18 was declared previous at ispass-2009-NN.1.sm_30.ptx:24 skipping new declaration
GPGPU-Sim PTX: Warning %f19 was declared previous at ispass-2009-NN.1.sm_30.ptx:24 skipping new declaration
GPGPU-Sim PTX: Warning %f20 was declared previous at ispass-2009-NN.1.sm_30.ptx:24 skipping new declaration
GPGPU-Sim PTX: Warning %f21 was declared previous at ispass-2009-NN.1.sm_30.ptx:24 skipping new declaration
GPGPU-Sim PTX: Warning %f22 was declared previous at ispass-2009-NN.1.sm_30.ptx:24 skipping new declaration
GPGPU-Sim PTX: Warning %f23 was declared previous at ispass-2009-NN.1.sm_30.ptx:24 skipping new declaration
GPGPU-Sim PTX: Warning %f24 was declared previous at ispass-2009-NN.1.sm_30.ptx:24 skipping new declaration
GPGPU-Sim PTX: Warning %f25 was declared previous at ispass-2009-NN.1.sm_30.ptx:24 skipping new declaration
GPGPU-Sim PTX: Warning %f26 was declared previous at ispass-2009-NN.1.sm_30.ptx:24 skipping new declaration
GPGPU-Sim PTX: Warning %f27 was declared previous at ispass-2009-NN.1.sm_30.ptx:24 skipping new declaration
GPGPU-Sim PTX: Warning %f28 was declared previous at ispass-2009-NN.1.sm_30.ptx:24 skipping new declaration
GPGPU-Sim PTX: Warning %f29 was declared previous at ispass-2009-NN.1.sm_30.ptx:24 skipping new declaration
GPGPU-Sim PTX: Warning %f30 was declared previous at ispass-2009-NN.1.sm_30.ptx:24 skipping new declaration
GPGPU-Sim PTX: Warning %f31 was declared previous at ispass-2009-NN.1.sm_30.ptx:24 skipping new declaration
GPGPU-Sim PTX: Warning %f32 was declared previous at ispass-2009-NN.1.sm_30.ptx:24 skipping new declaration
GPGPU-Sim PTX: Warning %f33 was declared previous at ispass-2009-NN.1.sm_30.ptx:24 skipping new declaration
GPGPU-Sim PTX: Warning %f34 was declared previous at ispass-2009-NN.1.sm_30.ptx:24 skipping new declaration
GPGPU-Sim PTX: Warning %f35 was declared previous at ispass-2009-NN.1.sm_30.ptx:24 skipping new declaration
GPGPU-Sim PTX: Warning %f36 was declared previous at ispass-2009-NN.1.sm_30.ptx:24 skipping new declaration
GPGPU-Sim PTX: Warning %f37 was declared previous at ispass-2009-NN.1.sm_30.ptx:24 skipping new declaration
GPGPU-Sim PTX: Warning %f38 was declared previous at ispass-2009-NN.1.sm_30.ptx:24 skipping new declaration
GPGPU-Sim PTX: Warning %f39 was declared previous at ispass-2009-NN.1.sm_30.ptx:24 skipping new declaration
GPGPU-Sim PTX: Warning %f40 was declared previous at ispass-2009-NN.1.sm_30.ptx:24 skipping new declaration
GPGPU-Sim PTX: Warning %f41 was declared previous at ispass-2009-NN.1.sm_30.ptx:24 skipping new declaration
GPGPU-Sim PTX: Warning %f42 was declared previous at ispass-2009-NN.1.sm_30.ptx:24 skipping new declaration
GPGPU-Sim PTX: Warning %f43 was declared previous at ispass-2009-NN.1.sm_30.ptx:24 skipping new declaration
GPGPU-Sim PTX: Warning %f44 was declared previous at ispass-2009-NN.1.sm_30.ptx:24 skipping new declaration
GPGPU-Sim PTX: Warning %f45 was declared previous at ispass-2009-NN.1.sm_30.ptx:24 skipping new declaration
GPGPU-Sim PTX: Warning %f46 was declared previous at ispass-2009-NN.1.sm_30.ptx:24 skipping new declaration
GPGPU-Sim PTX: Warning %f47 was declared previous at ispass-2009-NN.1.sm_30.ptx:24 skipping new declaration
GPGPU-Sim PTX: Warning %f48 was declared previous at ispass-2009-NN.1.sm_30.ptx:24 skipping new declaration
GPGPU-Sim PTX: Warning %f49 was declared previous at ispass-2009-NN.1.sm_30.ptx:24 skipping new declaration
GPGPU-Sim PTX: Warning %f50 was declared previous at ispass-2009-NN.1.sm_30.ptx:24 skipping new declaration
GPGPU-Sim PTX: Warning %f51 was declared previous at ispass-2009-NN.1.sm_30.ptx:24 skipping new declaration
GPGPU-Sim PTX: Warning %f52 was declared previous at ispass-2009-NN.1.sm_30.ptx:24 skipping new declaration
GPGPU-Sim PTX: Warning %f53 was declared previous at ispass-2009-NN.1.sm_30.ptx:24 skipping new declaration
GPGPU-Sim PTX: Warning %f54 was declared previous at ispass-2009-NN.1.sm_30.ptx:24 skipping new declaration
GPGPU-Sim PTX: Warning %f55 was declared previous at ispass-2009-NN.1.sm_30.ptx:24 skipping new declaration
GPGPU-Sim PTX: Warning %f56 was declared previous at ispass-2009-NN.1.sm_30.ptx:24 skipping new declaration
GPGPU-Sim PTX: Warning %f57 was declared previous at ispass-2009-NN.1.sm_30.ptx:24 skipping new declaration
GPGPU-Sim PTX: Warning %f58 was declared previous at ispass-2009-NN.1.sm_30.ptx:24 skipping new declaration
GPGPU-Sim PTX: Warning %f59 was declared previous at ispass-2009-NN.1.sm_30.ptx:24 skipping new declaration
GPGPU-Sim PTX: Warning %f60 was declared previous at ispass-2009-NN.1.sm_30.ptx:24 skipping new declaration
GPGPU-Sim PTX: Warning %f61 was declared previous at ispass-2009-NN.1.sm_30.ptx:24 skipping new declaration
GPGPU-Sim PTX: Warning %f62 was declared previous at ispass-2009-NN.1.sm_30.ptx:24 skipping new declaration
GPGPU-Sim PTX: Warning %f63 was declared previous at ispass-2009-NN.1.sm_30.ptx:24 skipping new declaration
GPGPU-Sim PTX: Warning %f64 was declared previous at ispass-2009-NN.1.sm_30.ptx:24 skipping new declaration
GPGPU-Sim PTX: Warning %f65 was declared previous at ispass-2009-NN.1.sm_30.ptx:24 skipping new declaration
GPGPU-Sim PTX: Warning %f66 was declared previous at ispass-2009-NN.1.sm_30.ptx:24 skipping new declaration
GPGPU-Sim PTX: Warning %f67 was declared previous at ispass-2009-NN.1.sm_30.ptx:24 skipping new declaration
GPGPU-Sim PTX: Warning %f68 was declared previous at ispass-2009-NN.1.sm_30.ptx:24 skipping new declaration
GPGPU-Sim PTX: Warning %f69 was declared previous at ispass-2009-NN.1.sm_30.ptx:24 skipping new declaration
GPGPU-Sim PTX: Warning %f70 was declared previous at ispass-2009-NN.1.sm_30.ptx:24 skipping new declaration
GPGPU-Sim PTX: Warning %f71 was declared previous at ispass-2009-NN.1.sm_30.ptx:24 skipping new declaration
GPGPU-Sim PTX: Warning %f72 was declared previous at ispass-2009-NN.1.sm_30.ptx:24 skipping new declaration
GPGPU-Sim PTX: Warning %f73 was declared previous at ispass-2009-NN.1.sm_30.ptx:24 skipping new declaration
GPGPU-Sim PTX: Warning %f74 was declared previous at ispass-2009-NN.1.sm_30.ptx:24 skipping new declaration
GPGPU-Sim PTX: Warning %f75 was declared previous at ispass-2009-NN.1.sm_30.ptx:24 skipping new declaration
GPGPU-Sim PTX: Warning %f76 was declared previous at ispass-2009-NN.1.sm_30.ptx:24 skipping new declaration
GPGPU-Sim PTX: Warning %f77 was declared previous at ispass-2009-NN.1.sm_30.ptx:24 skipping new declaration
GPGPU-Sim PTX: Warning %f78 was declared previous at ispass-2009-NN.1.sm_30.ptx:24 skipping new declaration
GPGPU-Sim PTX: Warning %f79 was declared previous at ispass-2009-NN.1.sm_30.ptx:24 skipping new declaration
GPGPU-Sim PTX: Warning %f80 was declared previous at ispass-2009-NN.1.sm_30.ptx:24 skipping new declaration
GPGPU-Sim PTX: Warning %f81 was declared previous at ispass-2009-NN.1.sm_30.ptx:24 skipping new declaration
GPGPU-Sim PTX: Warning %f82 was declared previous at ispass-2009-NN.1.sm_30.ptx:24 skipping new declaration
GPGPU-Sim PTX: Warning %f83 was declared previous at ispass-2009-NN.1.sm_30.ptx:24 skipping new declaration
GPGPU-Sim PTX: Warning %f84 was declared previous at ispass-2009-NN.1.sm_30.ptx:24 skipping new declaration
GPGPU-Sim PTX: Warning %f85 was declared previous at ispass-2009-NN.1.sm_30.ptx:24 skipping new declaration
GPGPU-Sim PTX: Warning %f86 was declared previous at ispass-2009-NN.1.sm_30.ptx:24 skipping new declaration
GPGPU-Sim PTX: Warning %f87 was declared previous at ispass-2009-NN.1.sm_30.ptx:24 skipping new declaration
GPGPU-Sim PTX: Warning %f88 was declared previous at ispass-2009-NN.1.sm_30.ptx:24 skipping new declaration
GPGPU-Sim PTX: Warning %f89 was declared previous at ispass-2009-NN.1.sm_30.ptx:24 skipping new declaration
GPGPU-Sim PTX: Warning %f90 was declared previous at ispass-2009-NN.1.sm_30.ptx:24 skipping new declaration
GPGPU-Sim PTX: Warning %f91 was declared previous at ispass-2009-NN.1.sm_30.ptx:24 skipping new declaration
GPGPU-Sim PTX: Warning %f92 was declared previous at ispass-2009-NN.1.sm_30.ptx:24 skipping new declaration
GPGPU-Sim PTX: Warning %f93 was declared previous at ispass-2009-NN.1.sm_30.ptx:24 skipping new declaration
GPGPU-Sim PTX: Warning %f94 was declared previous at ispass-2009-NN.1.sm_30.ptx:24 skipping new declaration
GPGPU-Sim PTX: Warning %f95 was declared previous at ispass-2009-NN.1.sm_30.ptx:24 skipping new declaration
GPGPU-Sim PTX: Warning %f96 was declared previous at ispass-2009-NN.1.sm_30.ptx:24 skipping new declaration
GPGPU-Sim PTX: Warning %f97 was declared previous at ispass-2009-NN.1.sm_30.ptx:24 skipping new declaration
GPGPU-Sim PTX: Warning %f98 was declared previous at ispass-2009-NN.1.sm_30.ptx:24 skipping new declaration
GPGPU-Sim PTX: Warning %f99 was declared previous at ispass-2009-NN.1.sm_30.ptx:24 skipping new declaration
GPGPU-Sim PTX: Warning %f100 was declared previous at ispass-2009-NN.1.sm_30.ptx:24 skipping new declaration
GPGPU-Sim PTX: Warning %f101 was declared previous at ispass-2009-NN.1.sm_30.ptx:24 skipping new declaration
GPGPU-Sim PTX: Warning %f102 was declared previous at ispass-2009-NN.1.sm_30.ptx:24 skipping new declaration
GPGPU-Sim PTX: Warning %f103 was declared previous at ispass-2009-NN.1.sm_30.ptx:24 skipping new declaration
GPGPU-Sim PTX: Warning %f104 was declared previous at ispass-2009-NN.1.sm_30.ptx:24 skipping new declaration
GPGPU-Sim PTX: Warning %f105 was declared previous at ispass-2009-NN.1.sm_30.ptx:24 skipping new declaration
GPGPU-Sim PTX: Warning %f106 was declared previous at ispass-2009-NN.1.sm_30.ptx:24 skipping new declaration
GPGPU-Sim PTX: Warning %f107 was declared previous at ispass-2009-NN.1.sm_30.ptx:24 skipping new declaration
GPGPU-Sim PTX: Warning %f108 was declared previous at ispass-2009-NN.1.sm_30.ptx:24 skipping new declaration
GPGPU-Sim PTX: Warning %f109 was declared previous at ispass-2009-NN.1.sm_30.ptx:24 skipping new declaration
GPGPU-Sim PTX: Warning %f110 was declared previous at ispass-2009-NN.1.sm_30.ptx:24 skipping new declaration
GPGPU-Sim PTX: Warning %r0 was declared previous at ispass-2009-NN.1.sm_30.ptx:25 skipping new declaration
GPGPU-Sim PTX: Warning %r1 was declared previous at ispass-2009-NN.1.sm_30.ptx:25 skipping new declaration
GPGPU-Sim PTX: Warning %r2 was declared previous at ispass-2009-NN.1.sm_30.ptx:25 skipping new declaration
GPGPU-Sim PTX: Warning %r3 was declared previous at ispass-2009-NN.1.sm_30.ptx:25 skipping new declaration
GPGPU-Sim PTX: Warning %r4 was declared previous at ispass-2009-NN.1.sm_30.ptx:25 skipping new declaration
GPGPU-Sim PTX: Warning %r5 was declared previous at ispass-2009-NN.1.sm_30.ptx:25 skipping new declaration
GPGPU-Sim PTX: Warning %r6 was declared previous at ispass-2009-NN.1.sm_30.ptx:25 skipping new declaration
GPGPU-Sim PTX: Warning %r7 was declared previous at ispass-2009-NN.1.sm_30.ptx:25 skipping new declaration
GPGPU-Sim PTX: Warning %r8 was declared previous at ispass-2009-NN.1.sm_30.ptx:25 skipping new declaration
GPGPU-Sim PTX: Warning %r9 was declared previous at ispass-2009-NN.1.sm_30.ptx:25 skipping new declaration
GPGPU-Sim PTX: Warning %r10 was declared previous at ispass-2009-NN.1.sm_30.ptx:25 skipping new declaration
GPGPU-Sim PTX: Warning %r11 was declared previous at ispass-2009-NN.1.sm_30.ptx:25 skipping new declaration
GPGPU-Sim PTX: Warning %r12 was declared previous at ispass-2009-NN.1.sm_30.ptx:25 skipping new declaration
GPGPU-Sim PTX: Warning %r13 was declared previous at ispass-2009-NN.1.sm_30.ptx:25 skipping new declaration
GPGPU-Sim PTX: Warning %r14 was declared previous at ispass-2009-NN.1.sm_30.ptx:25 skipping new declaration
GPGPU-Sim PTX: Warning %r15 was declared previous at ispass-2009-NN.1.sm_30.ptx:25 skipping new declaration
GPGPU-Sim PTX: Warning %r16 was declared previous at ispass-2009-NN.1.sm_30.ptx:25 skipping new declaration
GPGPU-Sim PTX: Warning %r17 was declared previous at ispass-2009-NN.1.sm_30.ptx:25 skipping new declaration
GPGPU-Sim PTX: Warning %r18 was declared previous at ispass-2009-NN.1.sm_30.ptx:25 skipping new declaration
GPGPU-Sim PTX: Warning %r19 was declared previous at ispass-2009-NN.1.sm_30.ptx:25 skipping new declaration
GPGPU-Sim PTX: Warning %r20 was declared previous at ispass-2009-NN.1.sm_30.ptx:25 skipping new declaration
GPGPU-Sim PTX: Warning %r21 was declared previous at ispass-2009-NN.1.sm_30.ptx:25 skipping new declaration
GPGPU-Sim PTX: Warning %r22 was declared previous at ispass-2009-NN.1.sm_30.ptx:25 skipping new declaration
GPGPU-Sim PTX: Warning %r23 was declared previous at ispass-2009-NN.1.sm_30.ptx:25 skipping new declaration
GPGPU-Sim PTX: Warning %r24 was declared previous at ispass-2009-NN.1.sm_30.ptx:25 skipping new declaration
GPGPU-Sim PTX: Warning %r25 was declared previous at ispass-2009-NN.1.sm_30.ptx:25 skipping new declaration
GPGPU-Sim PTX: Warning %r26 was declared previous at ispass-2009-NN.1.sm_30.ptx:25 skipping new declaration
GPGPU-Sim PTX: Warning %r27 was declared previous at ispass-2009-NN.1.sm_30.ptx:25 skipping new declaration
GPGPU-Sim PTX: Warning %r28 was declared previous at ispass-2009-NN.1.sm_30.ptx:25 skipping new declaration
GPGPU-Sim PTX: Warning %r29 was declared previous at ispass-2009-NN.1.sm_30.ptx:25 skipping new declaration
GPGPU-Sim PTX: Warning %r30 was declared previous at ispass-2009-NN.1.sm_30.ptx:25 skipping new declaration
GPGPU-Sim PTX: Warning %r31 was declared previous at ispass-2009-NN.1.sm_30.ptx:25 skipping new declaration
GPGPU-Sim PTX: Warning %r32 was declared previous at ispass-2009-NN.1.sm_30.ptx:25 skipping new declaration
GPGPU-Sim PTX: Warning %r33 was declared previous at ispass-2009-NN.1.sm_30.ptx:25 skipping new declaration
GPGPU-Sim PTX: Warning %r34 was declared previous at ispass-2009-NN.1.sm_30.ptx:25 skipping new declaration
GPGPU-Sim PTX: Warning %r35 was declared previous at ispass-2009-NN.1.sm_30.ptx:25 skipping new declaration
GPGPU-Sim PTX: Warning %r36 was declared previous at ispass-2009-NN.1.sm_30.ptx:25 skipping new declaration
GPGPU-Sim PTX: Warning %r37 was declared previous at ispass-2009-NN.1.sm_30.ptx:25 skipping new declaration
GPGPU-Sim PTX: Warning %r38 was declared previous at ispass-2009-NN.1.sm_30.ptx:25 skipping new declaration
GPGPU-Sim PTX: Warning %r39 was declared previous at ispass-2009-NN.1.sm_30.ptx:25 skipping new declaration
GPGPU-Sim PTX: Warning %r40 was declared previous at ispass-2009-NN.1.sm_30.ptx:25 skipping new declaration
GPGPU-Sim PTX: Warning %r41 was declared previous at ispass-2009-NN.1.sm_30.ptx:25 skipping new declaration
GPGPU-Sim PTX: Warning %r42 was declared previous at ispass-2009-NN.1.sm_30.ptx:25 skipping new declaration
GPGPU-Sim PTX: Warning %r43 was declared previous at ispass-2009-NN.1.sm_30.ptx:25 skipping new declaration
GPGPU-Sim PTX: Warning %r44 was declared previous at ispass-2009-NN.1.sm_30.ptx:25 skipping new declaration
GPGPU-Sim PTX: Warning %r45 was declared previous at ispass-2009-NN.1.sm_30.ptx:25 skipping new declaration
GPGPU-Sim PTX: Warning %r46 was declared previous at ispass-2009-NN.1.sm_30.ptx:25 skipping new declaration
GPGPU-Sim PTX: Warning %r47 was declared previous at ispass-2009-NN.1.sm_30.ptx:25 skipping new declaration
GPGPU-Sim PTX: Warning %r48 was declared previous at ispass-2009-NN.1.sm_30.ptx:25 skipping new declaration
GPGPU-Sim PTX: Warning %r49 was declared previous at ispass-2009-NN.1.sm_30.ptx:25 skipping new declaration
GPGPU-Sim PTX: Warning %r50 was declared previous at ispass-2009-NN.1.sm_30.ptx:25 skipping new declaration
GPGPU-Sim PTX: Warning %r51 was declared previous at ispass-2009-NN.1.sm_30.ptx:25 skipping new declaration
GPGPU-Sim PTX: Warning %r52 was declared previous at ispass-2009-NN.1.sm_30.ptx:25 skipping new declaration
GPGPU-Sim PTX: Warning %r53 was declared previous at ispass-2009-NN.1.sm_30.ptx:25 skipping new declaration
GPGPU-Sim PTX: Warning %r54 was declared previous at ispass-2009-NN.1.sm_30.ptx:25 skipping new declaration
GPGPU-Sim PTX: Warning %r55 was declared previous at ispass-2009-NN.1.sm_30.ptx:25 skipping new declaration
GPGPU-Sim PTX: Warning %r56 was declared previous at ispass-2009-NN.1.sm_30.ptx:25 skipping new declaration
GPGPU-Sim PTX: Warning %r57 was declared previous at ispass-2009-NN.1.sm_30.ptx:25 skipping new declaration
GPGPU-Sim PTX: Warning %r58 was declared previous at ispass-2009-NN.1.sm_30.ptx:25 skipping new declaration
GPGPU-Sim PTX: Warning %r59 was declared previous at ispass-2009-NN.1.sm_30.ptx:25 skipping new declaration
GPGPU-Sim PTX: Warning %r60 was declared previous at ispass-2009-NN.1.sm_30.ptx:25 skipping new declaration
GPGPU-Sim PTX: Warning %r61 was declared previous at ispass-2009-NN.1.sm_30.ptx:25 skipping new declaration
GPGPU-Sim PTX: Warning %r62 was declared previous at ispass-2009-NN.1.sm_30.ptx:25 skipping new declaration
GPGPU-Sim PTX: Warning %r63 was declared previous at ispass-2009-NN.1.sm_30.ptx:25 skipping new declaration
GPGPU-Sim PTX: Warning %r64 was declared previous at ispass-2009-NN.1.sm_30.ptx:25 skipping new declaration
GPGPU-Sim PTX: Warning %r65 was declared previous at ispass-2009-NN.1.sm_30.ptx:25 skipping new declaration
GPGPU-Sim PTX: Warning %r66 was declared previous at ispass-2009-NN.1.sm_30.ptx:25 skipping new declaration
GPGPU-Sim PTX: Warning %fd0 was declared previous at ispass-2009-NN.1.sm_30.ptx:26 skipping new declaration
GPGPU-Sim PTX: Warning %fd1 was declared previous at ispass-2009-NN.1.sm_30.ptx:26 skipping new declaration
GPGPU-Sim PTX: Warning %fd2 was declared previous at ispass-2009-NN.1.sm_30.ptx:26 skipping new declaration
GPGPU-Sim PTX: Warning %fd3 was declared previous at ispass-2009-NN.1.sm_30.ptx:26 skipping new declaration
GPGPU-Sim PTX: Warning %fd4 was declared previous at ispass-2009-NN.1.sm_30.ptx:26 skipping new declaration
GPGPU-Sim PTX: Warning %rd0 was declared previous at ispass-2009-NN.1.sm_30.ptx:27 skipping new declaration
GPGPU-Sim PTX: Warning %rd1 was declared previous at ispass-2009-NN.1.sm_30.ptx:27 skipping new declaration
GPGPU-Sim PTX: Warning %rd2 was declared previous at ispass-2009-NN.1.sm_30.ptx:27 skipping new declaration
GPGPU-Sim PTX: Warning %rd3 was declared previous at ispass-2009-NN.1.sm_30.ptx:27 skipping new declaration
GPGPU-Sim PTX: Warning %rd4 was declared previous at ispass-2009-NN.1.sm_30.ptx:27 skipping new declaration
GPGPU-Sim PTX: Warning %rd5 was declared previous at ispass-2009-NN.1.sm_30.ptx:27 skipping new declaration
GPGPU-Sim PTX: Warning %rd6 was declared previous at ispass-2009-NN.1.sm_30.ptx:27 skipping new declaration
GPGPU-Sim PTX: Warning %rd7 was declared previous at ispass-2009-NN.1.sm_30.ptx:27 skipping new declaration
GPGPU-Sim PTX: Warning %rd8 was declared previous at ispass-2009-NN.1.sm_30.ptx:27 skipping new declaration
GPGPU-Sim PTX: Warning %rd9 was declared previous at ispass-2009-NN.1.sm_30.ptx:27 skipping new declaration
GPGPU-Sim PTX: Warning %rd10 was declared previous at ispass-2009-NN.1.sm_30.ptx:27 skipping new declaration
GPGPU-Sim PTX: Warning %rd11 was declared previous at ispass-2009-NN.1.sm_30.ptx:27 skipping new declaration
GPGPU-Sim PTX: Warning %rd12 was declared previous at ispass-2009-NN.1.sm_30.ptx:27 skipping new declaration
GPGPU-Sim PTX: Warning %rd13 was declared previous at ispass-2009-NN.1.sm_30.ptx:27 skipping new declaration
GPGPU-Sim PTX: Warning %rd14 was declared previous at ispass-2009-NN.1.sm_30.ptx:27 skipping new declaration
GPGPU-Sim PTX: Warning %rd15 was declared previous at ispass-2009-NN.1.sm_30.ptx:27 skipping new declaration
GPGPU-Sim PTX: Warning %rd16 was declared previous at ispass-2009-NN.1.sm_30.ptx:27 skipping new declaration
GPGPU-Sim PTX: Warning %rd17 was declared previous at ispass-2009-NN.1.sm_30.ptx:27 skipping new declaration
GPGPU-Sim PTX: Warning %rd18 was declared previous at ispass-2009-NN.1.sm_30.ptx:27 skipping new declaration
GPGPU-Sim PTX: Warning %rd19 was declared previous at ispass-2009-NN.1.sm_30.ptx:27 skipping new declaration
GPGPU-Sim PTX: Warning %rd20 was declared previous at ispass-2009-NN.1.sm_30.ptx:27 skipping new declaration
GPGPU-Sim PTX: Warning %rd21 was declared previous at ispass-2009-NN.1.sm_30.ptx:27 skipping new declaration
GPGPU-Sim PTX: Warning %rd22 was declared previous at ispass-2009-NN.1.sm_30.ptx:27 skipping new declaration
GPGPU-Sim PTX: Warning %rd23 was declared previous at ispass-2009-NN.1.sm_30.ptx:27 skipping new declaration
GPGPU-Sim PTX: Warning %rd24 was declared previous at ispass-2009-NN.1.sm_30.ptx:27 skipping new declaration
GPGPU-Sim PTX: Warning %rd25 was declared previous at ispass-2009-NN.1.sm_30.ptx:27 skipping new declaration
GPGPU-Sim PTX: Warning %rd26 was declared previous at ispass-2009-NN.1.sm_30.ptx:27 skipping new declaration
GPGPU-Sim PTX: Warning %rd27 was declared previous at ispass-2009-NN.1.sm_30.ptx:27 skipping new declaration
GPGPU-Sim PTX: Warning %rd28 was declared previous at ispass-2009-NN.1.sm_30.ptx:27 skipping new declaration
GPGPU-Sim PTX: Warning %rd29 was declared previous at ispass-2009-NN.1.sm_30.ptx:27 skipping new declaration
GPGPU-Sim PTX: Warning %rd30 was declared previous at ispass-2009-NN.1.sm_30.ptx:27 skipping new declaration
GPGPU-Sim PTX: Warning %rd31 was declared previous at ispass-2009-NN.1.sm_30.ptx:27 skipping new declaration
GPGPU-Sim PTX: Warning %rd32 was declared previous at ispass-2009-NN.1.sm_30.ptx:27 skipping new declaration
GPGPU-Sim PTX: Warning %rd33 was declared previous at ispass-2009-NN.1.sm_30.ptx:27 skipping new declaration
GPGPU-Sim PTX: Warning %rd34 was declared previous at ispass-2009-NN.1.sm_30.ptx:27 skipping new declaration
GPGPU-Sim PTX: Warning %rd35 was declared previous at ispass-2009-NN.1.sm_30.ptx:27 skipping new declaration
GPGPU-Sim PTX: Warning %rd36 was declared previous at ispass-2009-NN.1.sm_30.ptx:27 skipping new declaration
GPGPU-Sim PTX: Warning %rd37 was declared previous at ispass-2009-NN.1.sm_30.ptx:27 skipping new declaration
GPGPU-Sim PTX: Warning %rd38 was declared previous at ispass-2009-NN.1.sm_30.ptx:27 skipping new declaration
GPGPU-Sim PTX: Warning %rd39 was declared previous at ispass-2009-NN.1.sm_30.ptx:27 skipping new declaration
GPGPU-Sim PTX: Warning %rd40 was declared previous at ispass-2009-NN.1.sm_30.ptx:27 skipping new declaration
GPGPU-Sim PTX: Warning %rd41 was declared previous at ispass-2009-NN.1.sm_30.ptx:27 skipping new declaration
GPGPU-Sim PTX: Warning %rd42 was declared previous at ispass-2009-NN.1.sm_30.ptx:27 skipping new declaration
GPGPU-Sim PTX: Warning %rd43 was declared previous at ispass-2009-NN.1.sm_30.ptx:27 skipping new declaration
GPGPU-Sim PTX: Warning %rd44 was declared previous at ispass-2009-NN.1.sm_30.ptx:27 skipping new declaration
GPGPU-Sim PTX: Warning %rd45 was declared previous at ispass-2009-NN.1.sm_30.ptx:27 skipping new declaration
GPGPU-Sim PTX: Warning %rd46 was declared previous at ispass-2009-NN.1.sm_30.ptx:27 skipping new declaration
GPGPU-Sim PTX: Warning %rd47 was declared previous at ispass-2009-NN.1.sm_30.ptx:27 skipping new declaration
GPGPU-Sim PTX: Warning %rd48 was declared previous at ispass-2009-NN.1.sm_30.ptx:27 skipping new declaration
GPGPU-Sim PTX: Warning %rd49 was declared previous at ispass-2009-NN.1.sm_30.ptx:27 skipping new declaration
GPGPU-Sim PTX: Warning %rd50 was declared previous at ispass-2009-NN.1.sm_30.ptx:27 skipping new declaration
GPGPU-Sim PTX: Warning %rd51 was declared previous at ispass-2009-NN.1.sm_30.ptx:27 skipping new declaration
GPGPU-Sim PTX: Warning %rd52 was declared previous at ispass-2009-NN.1.sm_30.ptx:27 skipping new declaration
GPGPU-Sim PTX: Warning %rd53 was declared previous at ispass-2009-NN.1.sm_30.ptx:27 skipping new declaration
GPGPU-Sim PTX: Warning %rd54 was declared previous at ispass-2009-NN.1.sm_30.ptx:27 skipping new declaration
GPGPU-Sim PTX: Warning %rd55 was declared previous at ispass-2009-NN.1.sm_30.ptx:27 skipping new declaration
GPGPU-Sim PTX: Warning %rd56 was declared previous at ispass-2009-NN.1.sm_30.ptx:27 skipping new declaration
GPGPU-Sim PTX: Warning %rd57 was declared previous at ispass-2009-NN.1.sm_30.ptx:27 skipping new declaration
GPGPU-Sim PTX: Warning %rd58 was declared previous at ispass-2009-NN.1.sm_30.ptx:27 skipping new declaration
GPGPU-Sim PTX: Warning %rd59 was declared previous at ispass-2009-NN.1.sm_30.ptx:27 skipping new declaration
GPGPU-Sim PTX: Warning %rd60 was declared previous at ispass-2009-NN.1.sm_30.ptx:27 skipping new declaration
GPGPU-Sim PTX: instruction assembly for function '_Z17executeFirstLayerPfS_S_'...   done.
GPGPU-Sim PTX: Warning %p0 was declared previous at ispass-2009-NN.1.sm_30.ptx:293 skipping new declaration
GPGPU-Sim PTX: Warning %p1 was declared previous at ispass-2009-NN.1.sm_30.ptx:293 skipping new declaration
GPGPU-Sim PTX: Warning %p2 was declared previous at ispass-2009-NN.1.sm_30.ptx:293 skipping new declaration
GPGPU-Sim PTX: Warning %p3 was declared previous at ispass-2009-NN.1.sm_30.ptx:293 skipping new declaration
GPGPU-Sim PTX: Warning %p4 was declared previous at ispass-2009-NN.1.sm_30.ptx:293 skipping new declaration
GPGPU-Sim PTX: Warning %f0 was declared previous at ispass-2009-NN.1.sm_30.ptx:294 skipping new declaration
GPGPU-Sim PTX: Warning %f1 was declared previous at ispass-2009-NN.1.sm_30.ptx:294 skipping new declaration
GPGPU-Sim PTX: Warning %f2 was declared previous at ispass-2009-NN.1.sm_30.ptx:294 skipping new declaration
GPGPU-Sim PTX: Warning %f3 was declared previous at ispass-2009-NN.1.sm_30.ptx:294 skipping new declaration
GPGPU-Sim PTX: Warning %f4 was declared previous at ispass-2009-NN.1.sm_30.ptx:294 skipping new declaration
GPGPU-Sim PTX: Warning %f5 was declared previous at ispass-2009-NN.1.sm_30.ptx:294 skipping new declaration
GPGPU-Sim PTX: Warning %f6 was declared previous at ispass-2009-NN.1.sm_30.ptx:294 skipping new declaration
GPGPU-Sim PTX: Warning %f7 was declared previous at ispass-2009-NN.1.sm_30.ptx:294 skipping new declaration
GPGPU-Sim PTX: Warning %f8 was declared previous at ispass-2009-NN.1.sm_30.ptx:294 skipping new declaration
GPGPU-Sim PTX: Warning %f9 was declared previous at ispass-2009-NN.1.sm_30.ptx:294 skipping new declaration
GPGPU-Sim PTX: Warning %f10 was declared previous at ispass-2009-NN.1.sm_30.ptx:294 skipping new declaration
GPGPU-Sim PTX: Warning %f11 was declared previous at ispass-2009-NN.1.sm_30.ptx:294 skipping new declaration
GPGPU-Sim PTX: Warning %f12 was declared previous at ispass-2009-NN.1.sm_30.ptx:294 skipping new declaration
GPGPU-Sim PTX: Warning %f13 was declared previous at ispass-2009-NN.1.sm_30.ptx:294 skipping new declaration
GPGPU-Sim PTX: Warning %f14 was declared previous at ispass-2009-NN.1.sm_30.ptx:294 skipping new declaration
GPGPU-Sim PTX: Warning %f15 was declared previous at ispass-2009-NN.1.sm_30.ptx:294 skipping new declaration
GPGPU-Sim PTX: Warning %f16 was declared previous at ispass-2009-NN.1.sm_30.ptx:294 skipping new declaration
GPGPU-Sim PTX: Warning %f17 was declared previous at ispass-2009-NN.1.sm_30.ptx:294 skipping new declaration
GPGPU-Sim PTX: Warning %f18 was declared previous at ispass-2009-NN.1.sm_30.ptx:294 skipping new declaration
GPGPU-Sim PTX: Warning %f19 was declared previous at ispass-2009-NN.1.sm_30.ptx:294 skipping new declaration
GPGPU-Sim PTX: Warning %f20 was declared previous at ispass-2009-NN.1.sm_30.ptx:294 skipping new declaration
GPGPU-Sim PTX: Warning %f21 was declared previous at ispass-2009-NN.1.sm_30.ptx:294 skipping new declaration
GPGPU-Sim PTX: Warning %f22 was declared previous at ispass-2009-NN.1.sm_30.ptx:294 skipping new declaration
GPGPU-Sim PTX: Warning %f23 was declared previous at ispass-2009-NN.1.sm_30.ptx:294 skipping new declaration
GPGPU-Sim PTX: Warning %f24 was declared previous at ispass-2009-NN.1.sm_30.ptx:294 skipping new declaration
GPGPU-Sim PTX: Warning %f25 was declared previous at ispass-2009-NN.1.sm_30.ptx:294 skipping new declaration
GPGPU-Sim PTX: Warning %f26 was declared previous at ispass-2009-NN.1.sm_30.ptx:294 skipping new declaration
GPGPU-Sim PTX: Warning %f27 was declared previous at ispass-2009-NN.1.sm_30.ptx:294 skipping new declaration
GPGPU-Sim PTX: Warning %f28 was declared previous at ispass-2009-NN.1.sm_30.ptx:294 skipping new declaration
GPGPU-Sim PTX: Warning %f29 was declared previous at ispass-2009-NN.1.sm_30.ptx:294 skipping new declaration
GPGPU-Sim PTX: Warning %f30 was declared previous at ispass-2009-NN.1.sm_30.ptx:294 skipping new declaration
GPGPU-Sim PTX: Warning %f31 was declared previous at ispass-2009-NN.1.sm_30.ptx:294 skipping new declaration
GPGPU-Sim PTX: Warning %f32 was declared previous at ispass-2009-NN.1.sm_30.ptx:294 skipping new declaration
GPGPU-Sim PTX: Warning %f33 was declared previous at ispass-2009-NN.1.sm_30.ptx:294 skipping new declaration
GPGPU-Sim PTX: Warning %f34 was declared previous at ispass-2009-NN.1.sm_30.ptx:294 skipping new declaration
GPGPU-Sim PTX: Warning %f35 was declared previous at ispass-2009-NN.1.sm_30.ptx:294 skipping new declaration
GPGPU-Sim PTX: Warning %f36 was declared previous at ispass-2009-NN.1.sm_30.ptx:294 skipping new declaration
GPGPU-Sim PTX: Warning %f37 was declared previous at ispass-2009-NN.1.sm_30.ptx:294 skipping new declaration
GPGPU-Sim PTX: Warning %f38 was declared previous at ispass-2009-NN.1.sm_30.ptx:294 skipping new declaration
GPGPU-Sim PTX: Warning %f39 was declared previous at ispass-2009-NN.1.sm_30.ptx:294 skipping new declaration
GPGPU-Sim PTX: Warning %f40 was declared previous at ispass-2009-NN.1.sm_30.ptx:294 skipping new declaration
GPGPU-Sim PTX: Warning %f41 was declared previous at ispass-2009-NN.1.sm_30.ptx:294 skipping new declaration
GPGPU-Sim PTX: Warning %f42 was declared previous at ispass-2009-NN.1.sm_30.ptx:294 skipping new declaration
GPGPU-Sim PTX: Warning %f43 was declared previous at ispass-2009-NN.1.sm_30.ptx:294 skipping new declaration
GPGPU-Sim PTX: Warning %f44 was declared previous at ispass-2009-NN.1.sm_30.ptx:294 skipping new declaration
GPGPU-Sim PTX: Warning %f45 was declared previous at ispass-2009-NN.1.sm_30.ptx:294 skipping new declaration
GPGPU-Sim PTX: Warning %f46 was declared previous at ispass-2009-NN.1.sm_30.ptx:294 skipping new declaration
GPGPU-Sim PTX: Warning %f47 was declared previous at ispass-2009-NN.1.sm_30.ptx:294 skipping new declaration
GPGPU-Sim PTX: Warning %f48 was declared previous at ispass-2009-NN.1.sm_30.ptx:294 skipping new declaration
GPGPU-Sim PTX: Warning %f49 was declared previous at ispass-2009-NN.1.sm_30.ptx:294 skipping new declaration
GPGPU-Sim PTX: Warning %f50 was declared previous at ispass-2009-NN.1.sm_30.ptx:294 skipping new declaration
GPGPU-Sim PTX: Warning %f51 was declared previous at ispass-2009-NN.1.sm_30.ptx:294 skipping new declaration
GPGPU-Sim PTX: Warning %f52 was declared previous at ispass-2009-NN.1.sm_30.ptx:294 skipping new declaration
GPGPU-Sim PTX: Warning %f53 was declared previous at ispass-2009-NN.1.sm_30.ptx:294 skipping new declaration
GPGPU-Sim PTX: Warning %f54 was declared previous at ispass-2009-NN.1.sm_30.ptx:294 skipping new declaration
GPGPU-Sim PTX: Warning %f55 was declared previous at ispass-2009-NN.1.sm_30.ptx:294 skipping new declaration
GPGPU-Sim PTX: Warning %r0 was declared previous at ispass-2009-NN.1.sm_30.ptx:295 skipping new declaration
GPGPU-Sim PTX: Warning %r1 was declared previous at ispass-2009-NN.1.sm_30.ptx:295 skipping new declaration
GPGPU-Sim PTX: Warning %r2 was declared previous at ispass-2009-NN.1.sm_30.ptx:295 skipping new declaration
GPGPU-Sim PTX: Warning %r3 was declared previous at ispass-2009-NN.1.sm_30.ptx:295 skipping new declaration
GPGPU-Sim PTX: Warning %r4 was declared previous at ispass-2009-NN.1.sm_30.ptx:295 skipping new declaration
GPGPU-Sim PTX: Warning %r5 was declared previous at ispass-2009-NN.1.sm_30.ptx:295 skipping new declaration
GPGPU-Sim PTX: Warning %r6 was declared previous at ispass-2009-NN.1.sm_30.ptx:295 skipping new declaration
GPGPU-Sim PTX: Warning %r7 was declared previous at ispass-2009-NN.1.sm_30.ptx:295 skipping new declaration
GPGPU-Sim PTX: Warning %r8 was declared previous at ispass-2009-NN.1.sm_30.ptx:295 skipping new declaration
GPGPU-Sim PTX: Warning %r9 was declared previous at ispass-2009-NN.1.sm_30.ptx:295 skipping new declaration
GPGPU-Sim PTX: Warning %r10 was declared previous at ispass-2009-NN.1.sm_30.ptx:295 skipping new declaration
GPGPU-Sim PTX: Warning %r11 was declared previous at ispass-2009-NN.1.sm_30.ptx:295 skipping new declaration
GPGPU-Sim PTX: Warning %r12 was declared previous at ispass-2009-NN.1.sm_30.ptx:295 skipping new declaration
GPGPU-Sim PTX: Warning %r13 was declared previous at ispass-2009-NN.1.sm_30.ptx:295 skipping new declaration
GPGPU-Sim PTX: Warning %r14 was declared previous at ispass-2009-NN.1.sm_30.ptx:295 skipping new declaration
GPGPU-Sim PTX: Warning %r15 was declared previous at ispass-2009-NN.1.sm_30.ptx:295 skipping new declaration
GPGPU-Sim PTX: Warning %r16 was declared previous at ispass-2009-NN.1.sm_30.ptx:295 skipping new declaration
GPGPU-Sim PTX: Warning %r17 was declared previous at ispass-2009-NN.1.sm_30.ptx:295 skipping new declaration
GPGPU-Sim PTX: Warning %r18 was declared previous at ispass-2009-NN.1.sm_30.ptx:295 skipping new declaration
GPGPU-Sim PTX: Warning %r19 was declared previous at ispass-2009-NN.1.sm_30.ptx:295 skipping new declaration
GPGPU-Sim PTX: Warning %r20 was declared previous at ispass-2009-NN.1.sm_30.ptx:295 skipping new declaration
GPGPU-Sim PTX: Warning %r21 was declared previous at ispass-2009-NN.1.sm_30.ptx:295 skipping new declaration
GPGPU-Sim PTX: Warning %r22 was declared previous at ispass-2009-NN.1.sm_30.ptx:295 skipping new declaration
GPGPU-Sim PTX: Warning %r23 was declared previous at ispass-2009-NN.1.sm_30.ptx:295 skipping new declaration
GPGPU-Sim PTX: Warning %r24 was declared previous at ispass-2009-NN.1.sm_30.ptx:295 skipping new declaration
GPGPU-Sim PTX: Warning %r25 was declared previous at ispass-2009-NN.1.sm_30.ptx:295 skipping new declaration
GPGPU-Sim PTX: Warning %r26 was declared previous at ispass-2009-NN.1.sm_30.ptx:295 skipping new declaration
GPGPU-Sim PTX: Warning %r27 was declared previous at ispass-2009-NN.1.sm_30.ptx:295 skipping new declaration
GPGPU-Sim PTX: Warning %r28 was declared previous at ispass-2009-NN.1.sm_30.ptx:295 skipping new declaration
GPGPU-Sim PTX: Warning %r29 was declared previous at ispass-2009-NN.1.sm_30.ptx:295 skipping new declaration
GPGPU-Sim PTX: Warning %r30 was declared previous at ispass-2009-NN.1.sm_30.ptx:295 skipping new declaration
GPGPU-Sim PTX: Warning %fd0 was declared previous at ispass-2009-NN.1.sm_30.ptx:296 skipping new declaration
GPGPU-Sim PTX: Warning %fd1 was declared previous at ispass-2009-NN.1.sm_30.ptx:296 skipping new declaration
GPGPU-Sim PTX: Warning %fd2 was declared previous at ispass-2009-NN.1.sm_30.ptx:296 skipping new declaration
GPGPU-Sim PTX: Warning %fd3 was declared previous at ispass-2009-NN.1.sm_30.ptx:296 skipping new declaration
GPGPU-Sim PTX: Warning %fd4 was declared previous at ispass-2009-NN.1.sm_30.ptx:296 skipping new declaration
GPGPU-Sim PTX: Warning %rd0 was declared previous at ispass-2009-NN.1.sm_30.ptx:297 skipping new declaration
GPGPU-Sim PTX: Warning %rd1 was declared previous at ispass-2009-NN.1.sm_30.ptx:297 skipping new declaration
GPGPU-Sim PTX: Warning %rd2 was declared previous at ispass-2009-NN.1.sm_30.ptx:297 skipping new declaration
GPGPU-Sim PTX: Warning %rd3 was declared previous at ispass-2009-NN.1.sm_30.ptx:297 skipping new declaration
GPGPU-Sim PTX: Warning %rd4 was declared previous at ispass-2009-NN.1.sm_30.ptx:297 skipping new declaration
GPGPU-Sim PTX: Warning %rd5 was declared previous at ispass-2009-NN.1.sm_30.ptx:297 skipping new declaration
GPGPU-Sim PTX: Warning %rd6 was declared previous at ispass-2009-NN.1.sm_30.ptx:297 skipping new declaration
GPGPU-Sim PTX: Warning %rd7 was declared previous at ispass-2009-NN.1.sm_30.ptx:297 skipping new declaration
GPGPU-Sim PTX: Warning %rd8 was declared previous at ispass-2009-NN.1.sm_30.ptx:297 skipping new declaration
GPGPU-Sim PTX: Warning %rd9 was declared previous at ispass-2009-NN.1.sm_30.ptx:297 skipping new declaration
GPGPU-Sim PTX: Warning %rd10 was declared previous at ispass-2009-NN.1.sm_30.ptx:297 skipping new declaration
GPGPU-Sim PTX: Warning %rd11 was declared previous at ispass-2009-NN.1.sm_30.ptx:297 skipping new declaration
GPGPU-Sim PTX: Warning %rd12 was declared previous at ispass-2009-NN.1.sm_30.ptx:297 skipping new declaration
GPGPU-Sim PTX: Warning %rd13 was declared previous at ispass-2009-NN.1.sm_30.ptx:297 skipping new declaration
GPGPU-Sim PTX: Warning %rd14 was declared previous at ispass-2009-NN.1.sm_30.ptx:297 skipping new declaration
GPGPU-Sim PTX: Warning %rd15 was declared previous at ispass-2009-NN.1.sm_30.ptx:297 skipping new declaration
GPGPU-Sim PTX: Warning %rd16 was declared previous at ispass-2009-NN.1.sm_30.ptx:297 skipping new declaration
GPGPU-Sim PTX: Warning %rd17 was declared previous at ispass-2009-NN.1.sm_30.ptx:297 skipping new declaration
GPGPU-Sim PTX: Warning %rd18 was declared previous at ispass-2009-NN.1.sm_30.ptx:297 skipping new declaration
GPGPU-Sim PTX: Warning %rd19 was declared previous at ispass-2009-NN.1.sm_30.ptx:297 skipping new declaration
GPGPU-Sim PTX: Warning %rd20 was declared previous at ispass-2009-NN.1.sm_30.ptx:297 skipping new declaration
GPGPU-Sim PTX: Warning %rd21 was declared previous at ispass-2009-NN.1.sm_30.ptx:297 skipping new declaration
GPGPU-Sim PTX: Warning %rd22 was declared previous at ispass-2009-NN.1.sm_30.ptx:297 skipping new declaration
GPGPU-Sim PTX: Warning %rd23 was declared previous at ispass-2009-NN.1.sm_30.ptx:297 skipping new declaration
GPGPU-Sim PTX: Warning %rd24 was declared previous at ispass-2009-NN.1.sm_30.ptx:297 skipping new declaration
GPGPU-Sim PTX: Warning %rd25 was declared previous at ispass-2009-NN.1.sm_30.ptx:297 skipping new declaration
GPGPU-Sim PTX: Warning %rd26 was declared previous at ispass-2009-NN.1.sm_30.ptx:297 skipping new declaration
GPGPU-Sim PTX: Warning %rd27 was declared previous at ispass-2009-NN.1.sm_30.ptx:297 skipping new declaration
GPGPU-Sim PTX: Warning %rd28 was declared previous at ispass-2009-NN.1.sm_30.ptx:297 skipping new declaration
GPGPU-Sim PTX: instruction assembly for function '_Z18executeSecondLayerPfS_S_'...   done.
GPGPU-Sim PTX: Warning %p0 was declared previous at ispass-2009-NN.1.sm_30.ptx:437 skipping new declaration
GPGPU-Sim PTX: Warning %p1 was declared previous at ispass-2009-NN.1.sm_30.ptx:437 skipping new declaration
GPGPU-Sim PTX: Warning %p2 was declared previous at ispass-2009-NN.1.sm_30.ptx:437 skipping new declaration
GPGPU-Sim PTX: Warning %p3 was declared previous at ispass-2009-NN.1.sm_30.ptx:437 skipping new declaration
GPGPU-Sim PTX: Warning %p4 was declared previous at ispass-2009-NN.1.sm_30.ptx:437 skipping new declaration
GPGPU-Sim PTX: Warning %f0 was declared previous at ispass-2009-NN.1.sm_30.ptx:438 skipping new declaration
GPGPU-Sim PTX: Warning %f1 was declared previous at ispass-2009-NN.1.sm_30.ptx:438 skipping new declaration
GPGPU-Sim PTX: Warning %f2 was declared previous at ispass-2009-NN.1.sm_30.ptx:438 skipping new declaration
GPGPU-Sim PTX: Warning %f3 was declared previous at ispass-2009-NN.1.sm_30.ptx:438 skipping new declaration
GPGPU-Sim PTX: Warning %f4 was declared previous at ispass-2009-NN.1.sm_30.ptx:438 skipping new declaration
GPGPU-Sim PTX: Warning %f5 was declared previous at ispass-2009-NN.1.sm_30.ptx:438 skipping new declaration
GPGPU-Sim PTX: Warning %f6 was declared previous at ispass-2009-NN.1.sm_30.ptx:438 skipping new declaration
GPGPU-Sim PTX: Warning %f7 was declared previous at ispass-2009-NN.1.sm_30.ptx:438 skipping new declaration
GPGPU-Sim PTX: Warning %f8 was declared previous at ispass-2009-NN.1.sm_30.ptx:438 skipping new declaration
GPGPU-Sim PTX: Warning %f9 was declared previous at ispass-2009-NN.1.sm_30.ptx:438 skipping new declaration
GPGPU-Sim PTX: Warning %f10 was declared previous at ispass-2009-NN.1.sm_30.ptx:438 skipping new declaration
GPGPU-Sim PTX: Warning %f11 was declared previous at ispass-2009-NN.1.sm_30.ptx:438 skipping new declaration
GPGPU-Sim PTX: Warning %f12 was declared previous at ispass-2009-NN.1.sm_30.ptx:438 skipping new declaration
GPGPU-Sim PTX: Warning %f13 was declared previous at ispass-2009-NN.1.sm_30.ptx:438 skipping new declaration
GPGPU-Sim PTX: Warning %f14 was declared previous at ispass-2009-NN.1.sm_30.ptx:438 skipping new declaration
GPGPU-Sim PTX: Warning %f15 was declared previous at ispass-2009-NN.1.sm_30.ptx:438 skipping new declaration
GPGPU-Sim PTX: Warning %f16 was declared previous at ispass-2009-NN.1.sm_30.ptx:438 skipping new declaration
GPGPU-Sim PTX: Warning %f17 was declared previous at ispass-2009-NN.1.sm_30.ptx:438 skipping new declaration
GPGPU-Sim PTX: Warning %f18 was declared previous at ispass-2009-NN.1.sm_30.ptx:438 skipping new declaration
GPGPU-Sim PTX: Warning %f19 was declared previous at ispass-2009-NN.1.sm_30.ptx:438 skipping new declaration
GPGPU-Sim PTX: Warning %f20 was declared previous at ispass-2009-NN.1.sm_30.ptx:438 skipping new declaration
GPGPU-Sim PTX: Warning %f21 was declared previous at ispass-2009-NN.1.sm_30.ptx:438 skipping new declaration
GPGPU-Sim PTX: Warning %f22 was declared previous at ispass-2009-NN.1.sm_30.ptx:438 skipping new declaration
GPGPU-Sim PTX: Warning %f23 was declared previous at ispass-2009-NN.1.sm_30.ptx:438 skipping new declaration
GPGPU-Sim PTX: Warning %f24 was declared previous at ispass-2009-NN.1.sm_30.ptx:438 skipping new declaration
GPGPU-Sim PTX: Warning %f25 was declared previous at ispass-2009-NN.1.sm_30.ptx:438 skipping new declaration
GPGPU-Sim PTX: Warning %f26 was declared previous at ispass-2009-NN.1.sm_30.ptx:438 skipping new declaration
GPGPU-Sim PTX: Warning %f27 was declared previous at ispass-2009-NN.1.sm_30.ptx:438 skipping new declaration
GPGPU-Sim PTX: Warning %f28 was declared previous at ispass-2009-NN.1.sm_30.ptx:438 skipping new declaration
GPGPU-Sim PTX: Warning %f29 was declared previous at ispass-2009-NN.1.sm_30.ptx:438 skipping new declaration
GPGPU-Sim PTX: Warning %f30 was declared previous at ispass-2009-NN.1.sm_30.ptx:438 skipping new declaration
GPGPU-Sim PTX: Warning %f31 was declared previous at ispass-2009-NN.1.sm_30.ptx:438 skipping new declaration
GPGPU-Sim PTX: Warning %f32 was declared previous at ispass-2009-NN.1.sm_30.ptx:438 skipping new declaration
GPGPU-Sim PTX: Warning %f33 was declared previous at ispass-2009-NN.1.sm_30.ptx:438 skipping new declaration
GPGPU-Sim PTX: Warning %f34 was declared previous at ispass-2009-NN.1.sm_30.ptx:438 skipping new declaration
GPGPU-Sim PTX: Warning %f35 was declared previous at ispass-2009-NN.1.sm_30.ptx:438 skipping new declaration
GPGPU-Sim PTX: Warning %f36 was declared previous at ispass-2009-NN.1.sm_30.ptx:438 skipping new declaration
GPGPU-Sim PTX: Warning %f37 was declared previous at ispass-2009-NN.1.sm_30.ptx:438 skipping new declaration
GPGPU-Sim PTX: Warning %f38 was declared previous at ispass-2009-NN.1.sm_30.ptx:438 skipping new declaration
GPGPU-Sim PTX: Warning %f39 was declared previous at ispass-2009-NN.1.sm_30.ptx:438 skipping new declaration
GPGPU-Sim PTX: Warning %f40 was declared previous at ispass-2009-NN.1.sm_30.ptx:438 skipping new declaration
GPGPU-Sim PTX: Warning %f41 was declared previous at ispass-2009-NN.1.sm_30.ptx:438 skipping new declaration
GPGPU-Sim PTX: Warning %f42 was declared previous at ispass-2009-NN.1.sm_30.ptx:438 skipping new declaration
GPGPU-Sim PTX: Warning %f43 was declared previous at ispass-2009-NN.1.sm_30.ptx:438 skipping new declaration
GPGPU-Sim PTX: Warning %f44 was declared previous at ispass-2009-NN.1.sm_30.ptx:438 skipping new declaration
GPGPU-Sim PTX: Warning %f45 was declared previous at ispass-2009-NN.1.sm_30.ptx:438 skipping new declaration
GPGPU-Sim PTX: Warning %f46 was declared previous at ispass-2009-NN.1.sm_30.ptx:438 skipping new declaration
GPGPU-Sim PTX: Warning %f47 was declared previous at ispass-2009-NN.1.sm_30.ptx:438 skipping new declaration
GPGPU-Sim PTX: Warning %f48 was declared previous at ispass-2009-NN.1.sm_30.ptx:438 skipping new declaration
GPGPU-Sim PTX: Warning %f49 was declared previous at ispass-2009-NN.1.sm_30.ptx:438 skipping new declaration
GPGPU-Sim PTX: Warning %f50 was declared previous at ispass-2009-NN.1.sm_30.ptx:438 skipping new declaration
GPGPU-Sim PTX: Warning %f51 was declared previous at ispass-2009-NN.1.sm_30.ptx:438 skipping new declaration
GPGPU-Sim PTX: Warning %f52 was declared previous at ispass-2009-NN.1.sm_30.ptx:438 skipping new declaration
GPGPU-Sim PTX: Warning %f53 was declared previous at ispass-2009-NN.1.sm_30.ptx:438 skipping new declaration
GPGPU-Sim PTX: Warning %f54 was declared previous at ispass-2009-NN.1.sm_30.ptx:438 skipping new declaration
GPGPU-Sim PTX: Warning %f55 was declared previous at ispass-2009-NN.1.sm_30.ptx:438 skipping new declaration
GPGPU-Sim PTX: Warning %f56 was declared previous at ispass-2009-NN.1.sm_30.ptx:438 skipping new declaration
GPGPU-Sim PTX: Warning %f57 was declared previous at ispass-2009-NN.1.sm_30.ptx:438 skipping new declaration
GPGPU-Sim PTX: Warning %f58 was declared previous at ispass-2009-NN.1.sm_30.ptx:438 skipping new declaration
GPGPU-Sim PTX: Warning %f59 was declared previous at ispass-2009-NN.1.sm_30.ptx:438 skipping new declaration
GPGPU-Sim PTX: Warning %f60 was declared previous at ispass-2009-NN.1.sm_30.ptx:438 skipping new declaration
GPGPU-Sim PTX: Warning %f61 was declared previous at ispass-2009-NN.1.sm_30.ptx:438 skipping new declaration
GPGPU-Sim PTX: Warning %f62 was declared previous at ispass-2009-NN.1.sm_30.ptx:438 skipping new declaration
GPGPU-Sim PTX: Warning %f63 was declared previous at ispass-2009-NN.1.sm_30.ptx:438 skipping new declaration
GPGPU-Sim PTX: Warning %f64 was declared previous at ispass-2009-NN.1.sm_30.ptx:438 skipping new declaration
GPGPU-Sim PTX: Warning %f65 was declared previous at ispass-2009-NN.1.sm_30.ptx:438 skipping new declaration
GPGPU-Sim PTX: Warning %f66 was declared previous at ispass-2009-NN.1.sm_30.ptx:438 skipping new declaration
GPGPU-Sim PTX: Warning %f67 was declared previous at ispass-2009-NN.1.sm_30.ptx:438 skipping new declaration
GPGPU-Sim PTX: Warning %r0 was declared previous at ispass-2009-NN.1.sm_30.ptx:439 skipping new declaration
GPGPU-Sim PTX: Warning %r1 was declared previous at ispass-2009-NN.1.sm_30.ptx:439 skipping new declaration
GPGPU-Sim PTX: Warning %r2 was declared previous at ispass-2009-NN.1.sm_30.ptx:439 skipping new declaration
GPGPU-Sim PTX: Warning %r3 was declared previous at ispass-2009-NN.1.sm_30.ptx:439 skipping new declaration
GPGPU-Sim PTX: Warning %r4 was declared previous at ispass-2009-NN.1.sm_30.ptx:439 skipping new declaration
GPGPU-Sim PTX: Warning %r5 was declared previous at ispass-2009-NN.1.sm_30.ptx:439 skipping new declaration
GPGPU-Sim PTX: Warning %r6 was declared previous at ispass-2009-NN.1.sm_30.ptx:439 skipping new declaration
GPGPU-Sim PTX: Warning %r7 was declared previous at ispass-2009-NN.1.sm_30.ptx:439 skipping new declaration
GPGPU-Sim PTX: Warning %r8 was declared previous at ispass-2009-NN.1.sm_30.ptx:439 skipping new declaration
GPGPU-Sim PTX: Warning %r9 was declared previous at ispass-2009-NN.1.sm_30.ptx:439 skipping new declaration
GPGPU-Sim PTX: Warning %r10 was declared previous at ispass-2009-NN.1.sm_30.ptx:439 skipping new declaration
GPGPU-Sim PTX: Warning %r11 was declared previous at ispass-2009-NN.1.sm_30.ptx:439 skipping new declaration
GPGPU-Sim PTX: Warning %r12 was declared previous at ispass-2009-NN.1.sm_30.ptx:439 skipping new declaration
GPGPU-Sim PTX: Warning %r13 was declared previous at ispass-2009-NN.1.sm_30.ptx:439 skipping new declaration
GPGPU-Sim PTX: Warning %r14 was declared previous at ispass-2009-NN.1.sm_30.ptx:439 skipping new declaration
GPGPU-Sim PTX: Warning %r15 was declared previous at ispass-2009-NN.1.sm_30.ptx:439 skipping new declaration
GPGPU-Sim PTX: Warning %r16 was declared previous at ispass-2009-NN.1.sm_30.ptx:439 skipping new declaration
GPGPU-Sim PTX: Warning %r17 was declared previous at ispass-2009-NN.1.sm_30.ptx:439 skipping new declaration
GPGPU-Sim PTX: Warning %r18 was declared previous at ispass-2009-NN.1.sm_30.ptx:439 skipping new declaration
GPGPU-Sim PTX: Warning %r19 was declared previous at ispass-2009-NN.1.sm_30.ptx:439 skipping new declaration
GPGPU-Sim PTX: Warning %r20 was declared previous at ispass-2009-NN.1.sm_30.ptx:439 skipping new declaration
GPGPU-Sim PTX: Warning %r21 was declared previous at ispass-2009-NN.1.sm_30.ptx:439 skipping new declaration
GPGPU-Sim PTX: Warning %r22 was declared previous at ispass-2009-NN.1.sm_30.ptx:439 skipping new declaration
GPGPU-Sim PTX: Warning %r23 was declared previous at ispass-2009-NN.1.sm_30.ptx:439 skipping new declaration
GPGPU-Sim PTX: Warning %r24 was declared previous at ispass-2009-NN.1.sm_30.ptx:439 skipping new declaration
GPGPU-Sim PTX: Warning %r25 was declared previous at ispass-2009-NN.1.sm_30.ptx:439 skipping new declaration
GPGPU-Sim PTX: Warning %r26 was declared previous at ispass-2009-NN.1.sm_30.ptx:439 skipping new declaration
GPGPU-Sim PTX: Warning %fd0 was declared previous at ispass-2009-NN.1.sm_30.ptx:440 skipping new declaration
GPGPU-Sim PTX: Warning %fd1 was declared previous at ispass-2009-NN.1.sm_30.ptx:440 skipping new declaration
GPGPU-Sim PTX: Warning %fd2 was declared previous at ispass-2009-NN.1.sm_30.ptx:440 skipping new declaration
GPGPU-Sim PTX: Warning %fd3 was declared previous at ispass-2009-NN.1.sm_30.ptx:440 skipping new declaration
GPGPU-Sim PTX: Warning %fd4 was declared previous at ispass-2009-NN.1.sm_30.ptx:440 skipping new declaration
GPGPU-Sim PTX: Warning %rd0 was declared previous at ispass-2009-NN.1.sm_30.ptx:441 skipping new declaration
GPGPU-Sim PTX: Warning %rd1 was declared previous at ispass-2009-NN.1.sm_30.ptx:441 skipping new declaration
GPGPU-Sim PTX: Warning %rd2 was declared previous at ispass-2009-NN.1.sm_30.ptx:441 skipping new declaration
GPGPU-Sim PTX: Warning %rd3 was declared previous at ispass-2009-NN.1.sm_30.ptx:441 skipping new declaration
GPGPU-Sim PTX: Warning %rd4 was declared previous at ispass-2009-NN.1.sm_30.ptx:441 skipping new declaration
GPGPU-Sim PTX: Warning %rd5 was declared previous at ispass-2009-NN.1.sm_30.ptx:441 skipping new declaration
GPGPU-Sim PTX: Warning %rd6 was declared previous at ispass-2009-NN.1.sm_30.ptx:441 skipping new declaration
GPGPU-Sim PTX: Warning %rd7 was declared previous at ispass-2009-NN.1.sm_30.ptx:441 skipping new declaration
[...]
issued_total_col = 205 
Row_Bus_Util =  0.000010 
CoL_Bus_Util = 0.000098 
Either_Row_CoL_Bus_Util = 0.000107 
Issued_on_Two_Bus_Simul_Util = 0.000000 
issued_two_Eff = 0.000000 
queue_avg = 0.000000 


dram_util_bins: 0 0 0 0 0 0 0 0 0 0
dram_eff_bins: 0 0 0 0 0 0 0 0 0 0
mrqq: max=0 avg=0
Memory Partition 6: 
Cache L2_bank_012:
MSHR contents

Cache L2_bank_013:
MSHR contents

In Dram Latency Queue (total = 0): 
DRAM[6]: 16 bks, busW=4 BL=8 CL=16, tRRD=8 tCCD=2, tRCD=16 tRAS=37 tRP=16 tRC=52
n_cmd=2102455 n_nop=2102215 n_act=17 n_pre=3 n_ref_event=0 n_req=220 n_rd=220 n_rd_L2_A=0 n_write=0 n_wr_bk=0 bw_util=0.0002093
n_activity=3655 dram_eff=0.1204
bk0: 0a 2102455i bk1: 0a 2102457i bk2: 4a 2102441i bk3: 6a 2102409i bk4: 26a 2102407i bk5: 23a 2102405i bk6: 22a 2102437i bk7: 20a 2102437i bk8: 7a 2102436i bk9: 6a 2102436i bk10: 21a 2102437i bk11: 16a 2102439i bk12: 24a 2102437i bk13: 20a 2102436i bk14: 15a 2102438i bk15: 10a 2102438i 

------------------------------------------------------------------------

Row_Buffer_Locality = 0.981818
Row_Buffer_Locality_read = 0.981818
Row_Buffer_Locality_write = -nan
Bank_Level_Parallism = 1.007463
Bank_Level_Parallism_Col = 1.002110
Bank_Level_Parallism_Ready = 1.000000
write_to_read_ratio_blp_rw_average = 0.000000
GrpLevelPara = 1.002110 

BW Util details:
bwutil = 0.000209 
total_CMD = 2102455 
util_bw = 440 
Wasted_Col = 270 
Wasted_Row = 44 
Idle = 2101701 

BW Util Bottlenecks: 
RCDc_limit = 270 
RCDWRc_limit = 0 
WTRc_limit = 0 
RTWc_limit = 0 
CCDLc_limit = 0 
rwq = 0 
CCDLc_limit_alone = 0 
WTRc_limit_alone = 0 
RTWc_limit_alone = 0 

Commands details: 
total_CMD = 2102455 
n_nop = 2102215 
Read = 220 
Write = 0 
L2_Alloc = 0 
L2_WB = 0 
n_act = 17 
n_pre = 3 
n_ref = 0 
n_req = 220 
total_req = 220 

Dual Bus Interface Util: 
issued_total_row = 20 
issued_total_col = 220 
Row_Bus_Util =  0.000010 
CoL_Bus_Util = 0.000105 
Either_Row_CoL_Bus_Util = 0.000114 
Issued_on_Two_Bus_Simul_Util = 0.000000 
issued_two_Eff = 0.000000 
queue_avg = 0.000000 


dram_util_bins: 0 0 0 0 0 0 0 0 0 0
dram_eff_bins: 0 0 0 0 0 0 0 0 0 0
mrqq: max=0 avg=0
Memory Partition 7: 
Cache L2_bank_014:
MSHR contents

Cache L2_bank_015:
MSHR contents

In Dram Latency Queue (total = 0): 
DRAM[7]: 16 bks, busW=4 BL=8 CL=16, tRRD=8 tCCD=2, tRCD=16 tRAS=37 tRP=16 tRC=52
n_cmd=2102455 n_nop=2102249 n_act=16 n_pre=2 n_ref_event=0 n_req=188 n_rd=188 n_rd_L2_A=0 n_write=0 n_wr_bk=0 bw_util=0.0001788
n_activity=3246 dram_eff=0.1158
bk0: 0a 2102453i bk1: 0a 2102457i bk2: 1a 2102442i bk3: 4a 2102441i bk4: 28a 2102409i bk5: 27a 2102406i bk6: 9a 2102437i bk7: 12a 2102437i bk8: 3a 2102437i bk9: 2a 2102437i bk10: 15a 2102436i bk11: 23a 2102437i bk12: 17a 2102438i bk13: 18a 2102437i bk14: 7a 2102437i bk15: 22a 2102436i 

------------------------------------------------------------------------

Row_Buffer_Locality = 0.984043
Row_Buffer_Locality_read = 0.984043
Row_Buffer_Locality_write = -nan
Bank_Level_Parallism = 1.002105
Bank_Level_Parallism_Col = 1.002342
Bank_Level_Parallism_Ready = 1.000000
write_to_read_ratio_blp_rw_average = 0.000000
GrpLevelPara = 1.002342 

BW Util details:
bwutil = 0.000179 
total_CMD = 2102455 
util_bw = 376 
Wasted_Col = 254 
Wasted_Row = 32 
Idle = 2101793 

BW Util Bottlenecks: 
RCDc_limit = 254 
RCDWRc_limit = 0 
WTRc_limit = 0 
RTWc_limit = 0 
CCDLc_limit = 2 
rwq = 0 
CCDLc_limit_alone = 2 
WTRc_limit_alone = 0 
RTWc_limit_alone = 0 

Commands details: 
total_CMD = 2102455 
n_nop = 2102249 
Read = 188 
Write = 0 
L2_Alloc = 0 
L2_WB = 0 
n_act = 16 
n_pre = 2 
n_ref = 0 
n_req = 188 
total_req = 188 

Dual Bus Interface Util: 
issued_total_row = 18 
issued_total_col = 188 
Row_Bus_Util =  0.000009 
CoL_Bus_Util = 0.000089 
Either_Row_CoL_Bus_Util = 0.000098 
Issued_on_Two_Bus_Simul_Util = 0.000000 
issued_two_Eff = 0.000000 
queue_avg = 0.000000 


dram_util_bins: 0 0 0 0 0 0 0 0 0 0
dram_eff_bins: 0 0 0 0 0 0 0 0 0 0
mrqq: max=0 avg=0
Memory Partition 8: 
Cache L2_bank_016:
MSHR contents

Cache L2_bank_017:
MSHR contents

In Dram Latency Queue (total = 0): 
DRAM[8]: 16 bks, busW=4 BL=8 CL=16, tRRD=8 tCCD=2, tRCD=16 tRAS=37 tRP=16 tRC=52
n_cmd=2102455 n_nop=2102239 n_act=18 n_pre=4 n_ref_event=0 n_req=194 n_rd=194 n_rd_L2_A=0 n_write=0 n_wr_bk=0 bw_util=0.0001845
n_activity=3353 dram_eff=0.1157
bk0: 0a 2102456i bk1: 0a 2102459i bk2: 10a 2102409i bk3: 13a 2102407i bk4: 17a 2102401i bk5: 20a 2102402i bk6: 17a 2102433i bk7: 11a 2102436i bk8: 5a 2102436i bk9: 10a 2102437i bk10: 11a 2102437i bk11: 17a 2102439i bk12: 22a 2102439i bk13: 16a 2102439i bk14: 11a 2102439i bk15: 14a 2102439i 

------------------------------------------------------------------------

Row_Buffer_Locality = 0.979381
Row_Buffer_Locality_read = 0.979381
Row_Buffer_Locality_write = -nan
Bank_Level_Parallism = 1.028090
Bank_Level_Parallism_Col = 1.000000
Bank_Level_Parallism_Ready = 1.000000
write_to_read_ratio_blp_rw_average = 0.000000
GrpLevelPara = 1.000000 

BW Util details:
bwutil = 0.000185 
total_CMD = 2102455 
util_bw = 388 
Wasted_Col = 290 
Wasted_Row = 48 
Idle = 2101729 

BW Util Bottlenecks: 
RCDc_limit = 288 
RCDWRc_limit = 0 
WTRc_limit = 0 
RTWc_limit = 0 
CCDLc_limit = 2 
rwq = 0 
CCDLc_limit_alone = 2 
WTRc_limit_alone = 0 
RTWc_limit_alone = 0 

Commands details: 
total_CMD = 2102455 
n_nop = 2102239 
Read = 194 
Write = 0 
L2_Alloc = 0 
L2_WB = 0 
n_act = 18 
n_pre = 4 
n_ref = 0 
n_req = 194 
total_req = 194 

Dual Bus Interface Util: 
issued_total_row = 22 
issued_total_col = 194 
Row_Bus_Util =  0.000010 
CoL_Bus_Util = 0.000092 
Either_Row_CoL_Bus_Util = 0.000103 
Issued_on_Two_Bus_Simul_Util = 0.000000 
issued_two_Eff = 0.000000 
queue_avg = 0.000004 


dram_util_bins: 0 0 0 0 0 0 0 0 0 0
dram_eff_bins: 0 0 0 0 0 0 0 0 0 0
mrqq: max=1 avg=3.80508e-06
Memory Partition 9: 
Cache L2_bank_018:
MSHR contents

Cache L2_bank_019:
MSHR contents

In Dram Latency Queue (total = 0): 
DRAM[9]: 16 bks, busW=4 BL=8 CL=16, tRRD=8 tCCD=2, tRCD=16 tRAS=37 tRP=16 tRC=52
n_cmd=2102455 n_nop=2102244 n_act=17 n_pre=3 n_ref_event=0 n_req=191 n_rd=191 n_rd_L2_A=0 n_write=0 n_wr_bk=0 bw_util=0.0001817
n_activity=3326 dram_eff=0.1149
bk0: 0a 2102455i bk1: 0a 2102457i bk2: 6a 2102409i bk3: 16a 2102439i bk4: 20a 2102405i bk5: 24a 2102402i bk6: 7a 2102437i bk7: 9a 2102437i bk8: 6a 2102437i bk9: 9a 2102438i bk10: 19a 2102437i bk11: 18a 2102435i bk12: 18a 2102436i bk13: 18a 2102437i bk14: 7a 2102440i bk15: 14a 2102440i 

------------------------------------------------------------------------

Row_Buffer_Locality = 0.979058
Row_Buffer_Locality_read = 0.979058
Row_Buffer_Locality_write = -nan
Bank_Level_Parallism = 1.001949
Bank_Level_Parallism_Col = 1.002232
Bank_Level_Parallism_Ready = 1.000000
write_to_read_ratio_blp_rw_average = 0.000000
GrpLevelPara = 1.002232 

BW Util details:
bwutil = 0.000182 
total_CMD = 2102455 
util_bw = 382 
Wasted_Col = 272 
Wasted_Row = 48 
Idle = 2101753 

BW Util Bottlenecks: 
RCDc_limit = 270 
RCDWRc_limit = 0 
WTRc_limit = 0 
RTWc_limit = 0 
CCDLc_limit = 2 
rwq = 0 
CCDLc_limit_alone = 2 
WTRc_limit_alone = 0 
RTWc_limit_alone = 0 

Commands details: 
total_CMD = 2102455 
n_nop = 2102244 
Read = 191 
Write = 0 
L2_Alloc = 0 
L2_WB = 0 
n_act = 17 
n_pre = 3 
n_ref = 0 
n_req = 191 
total_req = 191 

Dual Bus Interface Util: 
issued_total_row = 20 
issued_total_col = 191 
Row_Bus_Util =  0.000010 
CoL_Bus_Util = 0.000091 
Either_Row_CoL_Bus_Util = 0.000100 
Issued_on_Two_Bus_Simul_Util = 0.000000 
issued_two_Eff = 0.000000 
queue_avg = 0.000000 


dram_util_bins: 0 0 0 0 0 0 0 0 0 0
dram_eff_bins: 0 0 0 0 0 0 0 0 0 0
mrqq: max=1 avg=4.75634e-07
Memory Partition 10: 
Cache L2_bank_020:
MSHR contents

Cache L2_bank_021:
MSHR contents

In Dram Latency Queue (total = 0): 
DRAM[10]: 16 bks, busW=4 BL=8 CL=16, tRRD=8 tCCD=2, tRCD=16 tRAS=37 tRP=16 tRC=52
n_cmd=2102455 n_nop=2102172 n_act=18 n_pre=4 n_ref_event=0 n_req=261 n_rd=261 n_rd_L2_A=0 n_write=0 n_wr_bk=0 bw_util=0.0002483
n_activity=4227 dram_eff=0.1235
bk0: 0a 2102455i bk1: 0a 2102456i bk2: 9a 2102407i bk3: 10a 2102406i bk4: 41a 2102402i bk5: 21a 2102405i bk6: 25a 2102434i bk7: 19a 2102434i bk8: 7a 2102433i bk9: 10a 2102441i bk10: 21a 2102440i bk11: 23a 2102440i bk12: 22a 2102438i bk13: 21a 2102439i bk14: 11a 2102438i bk15: 21a 2102438i 

------------------------------------------------------------------------

Row_Buffer_Locality = 0.984674
Row_Buffer_Locality_read = 0.984674
Row_Buffer_Locality_write = -nan
Bank_Level_Parallism = 1.056410
Bank_Level_Parallism_Col = 1.000000
Bank_Level_Parallism_Ready = 1.000000
write_to_read_ratio_blp_rw_average = 0.000000
GrpLevelPara = 1.000000 

BW Util details:
bwutil = 0.000248 
total_CMD = 2102455 
util_bw = 522 
Wasted_Col = 289 
Wasted_Row = 32 
Idle = 2101612 

BW Util Bottlenecks: 
RCDc_limit = 286 
RCDWRc_limit = 0 
WTRc_limit = 0 
RTWc_limit = 0 
CCDLc_limit = 3 
rwq = 0 
CCDLc_limit_alone = 3 
WTRc_limit_alone = 0 
RTWc_limit_alone = 0 

Commands details: 
total_CMD = 2102455 
n_nop = 2102172 
Read = 261 
Write = 0 
L2_Alloc = 0 
L2_WB = 0 
n_act = 18 
n_pre = 4 
n_ref = 0 
n_req = 261 
total_req = 261 

Dual Bus Interface Util: 
issued_total_row = 22 
issued_total_col = 261 
Row_Bus_Util =  0.000010 
CoL_Bus_Util = 0.000124 
Either_Row_CoL_Bus_Util = 0.000135 
Issued_on_Two_Bus_Simul_Util = 0.000000 
issued_two_Eff = 0.000000 
queue_avg = 0.000007 


dram_util_bins: 0 0 0 0 0 0 0 0 0 0
dram_eff_bins: 0 0 0 0 0 0 0 0 0 0
mrqq: max=1 avg=6.65888e-06
Memory Partition 11: 
Cache L2_bank_022:
MSHR contents

Cache L2_bank_023:
MSHR contents

In Dram Latency Queue (total = 0): 
DRAM[11]: 16 bks, busW=4 BL=8 CL=16, tRRD=8 tCCD=2, tRCD=16 tRAS=37 tRP=16 tRC=52
n_cmd=2102455 n_nop=2102270 n_act=15 n_pre=2 n_ref_event=0 n_req=168 n_rd=168 n_rd_L2_A=0 n_write=0 n_wr_bk=0 bw_util=0.0001598
n_activity=2931 dram_eff=0.1146
bk0: 0a 2102454i bk1: 0a 2102458i bk2: 2a 2102442i bk3: 0a 2102458i bk4: 31a 2102409i bk5: 16a 2102407i bk6: 13a 2102438i bk7: 20a 2102437i bk8: 4a 2102436i bk9: 5a 2102432i bk10: 18a 2102435i bk11: 21a 2102436i bk12: 13a 2102436i bk13: 10a 2102437i bk14: 7a 2102438i bk15: 8a 2102438i 

------------------------------------------------------------------------

Row_Buffer_Locality = 0.988095
Row_Buffer_Locality_read = 0.988095
Row_Buffer_Locality_write = -nan
Bank_Level_Parallism = 1.000000
Bank_Level_Parallism_Col = 1.000000
Bank_Level_Parallism_Ready = 1.000000
write_to_read_ratio_blp_rw_average = 0.000000
GrpLevelPara = 1.000000 

BW Util details:
bwutil = 0.000160 
total_CMD = 2102455 
util_bw = 336 
Wasted_Col = 242 
Wasted_Row = 32 
Idle = 2101845 

BW Util Bottlenecks: 
RCDc_limit = 240 
RCDWRc_limit = 0 
WTRc_limit = 0 
RTWc_limit = 0 
CCDLc_limit = 2 
rwq = 0 
CCDLc_limit_alone = 2 
WTRc_limit_alone = 0 
RTWc_limit_alone = 0 

Commands details: 
total_CMD = 2102455 
n_nop = 2102270 
Read = 168 
Write = 0 
L2_Alloc = 0 
L2_WB = 0 
n_act = 15 
n_pre = 2 
n_ref = 0 
n_req = 168 
total_req = 168 

Dual Bus Interface Util: 
issued_total_row = 17 
issued_total_col = 168 
Row_Bus_Util =  0.000008 
CoL_Bus_Util = 0.000080 
Either_Row_CoL_Bus_Util = 0.000088 
Issued_on_Two_Bus_Simul_Util = 0.000000 
issued_two_Eff = 0.000000 
queue_avg = 0.000003 


dram_util_bins: 0 0 0 0 0 0 0 0 0 0
dram_eff_bins: 0 0 0 0 0 0 0 0 0 0
mrqq: max=1 avg=3.32944e-06

========= L2 cache stats =========
L2_cache_bank[0]: Access = 381686, Miss = 788, Miss_rate = 0.002, Pending_hits = 683, Reservation_fails = 0
L2_cache_bank[1]: Access = 378339, Miss = 510, Miss_rate = 0.001, Pending_hits = 457, Reservation_fails = 0
L2_cache_bank[2]: Access = 421022, Miss = 668, Miss_rate = 0.002, Pending_hits = 754, Reservation_fails = 20
L2_cache_bank[3]: Access = 415933, Miss = 642, Miss_rate = 0.002, Pending_hits = 475, Reservation_fails = 0
L2_cache_bank[4]: Access = 402257, Miss = 742, Miss_rate = 0.002, Pending_hits = 620, Reservation_fails = 0
L2_cache_bank[5]: Access = 383251, Miss = 570, Miss_rate = 0.001, Pending_hits = 536, Reservation_fails = 0
L2_cache_bank[6]: Access = 385850, Miss = 606, Miss_rate = 0.002, Pending_hits = 696, Reservation_fails = 0
L2_cache_bank[7]: Access = 439158, Miss = 644, Miss_rate = 0.001, Pending_hits = 513, Reservation_fails = 0
L2_cache_bank[8]: Access = 424714, Miss = 688, Miss_rate = 0.002, Pending_hits = 583, Reservation_fails = 0
L2_cache_bank[9]: Access = 390825, Miss = 603, Miss_rate = 0.002, Pending_hits = 434, Reservation_fails = 0
L2_cache_bank[10]: Access = 442222, Miss = 684, Miss_rate = 0.002, Pending_hits = 572, Reservation_fails = 0
L2_cache_bank[11]: Access = 386035, Miss = 610, Miss_rate = 0.002, Pending_hits = 602, Reservation_fails = 0
L2_cache_bank[12]: Access = 419882, Miss = 784, Miss_rate = 0.002, Pending_hits = 750, Reservation_fails = 0
L2_cache_bank[13]: Access = 398874, Miss = 516, Miss_rate = 0.001, Pending_hits = 475, Reservation_fails = 0
L2_cache_bank[14]: Access = 389188, Miss = 627, Miss_rate = 0.002, Pending_hits = 505, Reservation_fails = 0
L2_cache_bank[15]: Access = 389939, Miss = 538, Miss_rate = 0.001, Pending_hits = 510, Reservation_fails = 0
L2_cache_bank[16]: Access = 385243, Miss = 682, Miss_rate = 0.002, Pending_hits = 626, Reservation_fails = 0
L2_cache_bank[17]: Access = 384317, Miss = 574, Miss_rate = 0.001, Pending_hits = 496, Reservation_fails = 0
L2_cache_bank[18]: Access = 379386, Miss = 644, Miss_rate = 0.002, Pending_hits = 633, Reservation_fails = 0
L2_cache_bank[19]: Access = 383711, Miss = 530, Miss_rate = 0.001, Pending_hits = 527, Reservation_fails = 0
L2_cache_bank[20]: Access = 446418, Miss = 740, Miss_rate = 0.002, Pending_hits = 684, Reservation_fails = 0
L2_cache_bank[21]: Access = 479293, Miss = 854, Miss_rate = 0.002, Pending_hits = 760, Reservation_fails = 0
L2_cache_bank[22]: Access = 388626, Miss = 616, Miss_rate = 0.002, Pending_hits = 523, Reservation_fails = 0
L2_cache_bank[23]: Access = 347750, Miss = 428, Miss_rate = 0.001, Pending_hits = 230, Reservation_fails = 0
L2_total_cache_accesses = 9643919
L2_total_cache_misses = 15288
L2_total_cache_miss_rate = 0.0016
L2_total_cache_pending_hits = 13644
L2_total_cache_reservation_fails = 20
L2_total_cache_breakdown:
	L2_cache_stats_breakdown[GLOBAL_ACC_R][HIT] = 9614707
	L2_cache_stats_breakdown[GLOBAL_ACC_R][HIT_RESERVED] = 13644
	L2_cache_stats_breakdown[GLOBAL_ACC_R][MISS] = 0
	L2_cache_stats_breakdown[GLOBAL_ACC_R][RESERVATION_FAIL] = 20
	L2_cache_stats_breakdown[GLOBAL_ACC_R][SECTOR_MISS] = 2457
	L2_cache_stats_breakdown[LOCAL_ACC_R][HIT] = 0
	L2_cache_stats_breakdown[LOCAL_ACC_R][HIT_RESERVED] = 0
	L2_cache_stats_breakdown[LOCAL_ACC_R][MISS] = 0
	L2_cache_stats_breakdown[LOCAL_ACC_R][RESERVATION_FAIL] = 0
	L2_cache_stats_breakdown[LOCAL_ACC_R][SECTOR_MISS] = 0
	L2_cache_stats_breakdown[CONST_ACC_R][HIT] = 0
	L2_cache_stats_breakdown[CONST_ACC_R][HIT_RESERVED] = 0
	L2_cache_stats_breakdown[CONST_ACC_R][MISS] = 0
	L2_cache_stats_breakdown[CONST_ACC_R][RESERVATION_FAIL] = 0
	L2_cache_stats_breakdown[CONST_ACC_R][SECTOR_MISS] = 0
	L2_cache_stats_breakdown[TEXTURE_ACC_R][HIT] = 0
	L2_cache_stats_breakdown[TEXTURE_ACC_R][HIT_RESERVED] = 0
	L2_cache_stats_breakdown[TEXTURE_ACC_R][MISS] = 0
	L2_cache_stats_breakdown[TEXTURE_ACC_R][RESERVATION_FAIL] = 0
	L2_cache_stats_breakdown[TEXTURE_ACC_R][SECTOR_MISS] = 0
	L2_cache_stats_breakdown[GLOBAL_ACC_W][HIT] = 280
	L2_cache_stats_breakdown[GLOBAL_ACC_W][HIT_RESERVED] = 0
	L2_cache_stats_breakdown[GLOBAL_ACC_W][MISS] = 2070
	L2_cache_stats_breakdown[GLOBAL_ACC_W][RESERVATION_FAIL] = 0
	L2_cache_stats_breakdown[GLOBAL_ACC_W][SECTOR_MISS] = 10761
	L2_cache_stats_breakdown[LOCAL_ACC_W][HIT] = 0
	L2_cache_stats_breakdown[LOCAL_ACC_W][HIT_RESERVED] = 0
	L2_cache_stats_breakdown[LOCAL_ACC_W][MISS] = 0
	L2_cache_stats_breakdown[LOCAL_ACC_W][RESERVATION_FAIL] = 0
	L2_cache_stats_breakdown[LOCAL_ACC_W][SECTOR_MISS] = 0
	L2_cache_stats_breakdown[L1_WRBK_ACC][HIT] = 0
	L2_cache_stats_breakdown[L1_WRBK_ACC][HIT_RESERVED] = 0
	L2_cache_stats_breakdown[L1_WRBK_ACC][MISS] = 0
	L2_cache_stats_breakdown[L1_WRBK_ACC][RESERVATION_FAIL] = 0
	L2_cache_stats_breakdown[L1_WRBK_ACC][SECTOR_MISS] = 0
	L2_cache_stats_breakdown[L2_WRBK_ACC][HIT] = 0
	L2_cache_stats_breakdown[L2_WRBK_ACC][HIT_RESERVED] = 0
	L2_cache_stats_breakdown[L2_WRBK_ACC][MISS] = 0
	L2_cache_stats_breakdown[L2_WRBK_ACC][RESERVATION_FAIL] = 0
	L2_cache_stats_breakdown[L2_WRBK_ACC][SECTOR_MISS] = 0
	L2_cache_stats_breakdown[INST_ACC_R][HIT] = 0
	L2_cache_stats_breakdown[INST_ACC_R][HIT_RESERVED] = 0
	L2_cache_stats_breakdown[INST_ACC_R][MISS] = 0
	L2_cache_stats_breakdown[INST_ACC_R][RESERVATION_FAIL] = 0
	L2_cache_stats_breakdown[INST_ACC_R][SECTOR_MISS] = 0
	L2_cache_stats_breakdown[L1_WR_ALLOC_R][HIT] = 0
	L2_cache_stats_breakdown[L1_WR_ALLOC_R][HIT_RESERVED] = 0
	L2_cache_stats_breakdown[L1_WR_ALLOC_R][MISS] = 0
	L2_cache_stats_breakdown[L1_WR_ALLOC_R][RESERVATION_FAIL] = 0
	L2_cache_stats_breakdown[L1_WR_ALLOC_R][SECTOR_MISS] = 0
	L2_cache_stats_breakdown[L2_WR_ALLOC_R][HIT] = 0
	L2_cache_stats_breakdown[L2_WR_ALLOC_R][HIT_RESERVED] = 0
	L2_cache_stats_breakdown[L2_WR_ALLOC_R][MISS] = 0
	L2_cache_stats_breakdown[L2_WR_ALLOC_R][RESERVATION_FAIL] = 0
	L2_cache_stats_breakdown[L2_WR_ALLOC_R][SECTOR_MISS] = 0
	L2_cache_stats_breakdown[GLOBAL_ACC_R][TOTAL_ACCESS] = 9630808
	L2_cache_stats_breakdown[GLOBAL_ACC_W][TOTAL_ACCESS] = 13111
L2_total_cache_reservation_fail_breakdown:
	L2_cache_stats_fail_breakdown[GLOBAL_ACC_R][MSHR_MERGE_ENRTY_FAIL] = 20
L2_cache_data_port_util = 0.336
L2_cache_fill_port_util = 0.000

icnt_total_pkts_mem_to_simt=9643919
icnt_total_pkts_simt_to_mem=9643919
LD_mem_lat_dist  0 0 0 0 0 0 0 0 0 0 0 0 0 0 0 0 0 0 0 0 0 0 0 0 0 0 0
ST_mem_lat_dist  0 0 0 0 0 0 0 0 0 0 0 0 0 0 0 0 0 0 0 0 0 0 0 0 0 0 0
----------------------------Interconnect-DETAILS--------------------------------
Class 0:
Packet latency average = 5.42023
	minimum = 5
	maximum = 59
Network latency average = 5.42023
	minimum = 5
	maximum = 59
Slowest packet = 19175556
Flit latency average = 5.42023
	minimum = 5
	maximum = 59
Slowest flit = 19175556
Fragmentation average = 0
	minimum = 0
	maximum = 0
Injected packet rate average = 0.0900147
	minimum = 0.0132412 (at node 51)
	maximum = 0.217156 (at node 49)
Accepted packet rate average = 0.0900147
	minimum = 0.0132412 (at node 51)
	maximum = 0.217156 (at node 49)
Injected flit rate average = 0.0900147
	minimum = 0.0132412 (at node 51)
	maximum = 0.217156 (at node 49)
Accepted flit rate average= 0.0900147
	minimum = 0.0132412 (at node 51)
	maximum = 0.217156 (at node 49)
Injected packet length average = 1
Accepted packet length average = 1
Total in-flight flits = 0 (0 measured)
====== Overall Traffic Statistics ======
====== Traffic class 0 ======
Packet latency average = 128.004 (4 samples)
	minimum = 5 (4 samples)
	maximum = 606.25 (4 samples)
Network latency average = 40.3938 (4 samples)
	minimum = 5 (4 samples)
	maximum = 321.5 (4 samples)
Flit latency average = 40.3938 (4 samples)
	minimum = 5 (4 samples)
	maximum = 321.5 (4 samples)
Fragmentation average = 0 (4 samples)
	minimum = 0 (4 samples)
	maximum = 0 (4 samples)
Injected packet rate average = 0.298262 (4 samples)
	minimum = 0.213788 (4 samples)
	maximum = 0.469954 (4 samples)
Accepted packet rate average = 0.298262 (4 samples)
	minimum = 0.213788 (4 samples)
	maximum = 0.469954 (4 samples)
Injected flit rate average = 0.298262 (4 samples)
	minimum = 0.213788 (4 samples)
	maximum = 0.469954 (4 samples)
Accepted flit rate average = 0.298262 (4 samples)
	minimum = 0.213788 (4 samples)
	maximum = 0.469954 (4 samples)
Injected packet size average = 1 (4 samples)
Accepted packet size average = 1 (4 samples)
Hops average = 1 (4 samples)
----------------------------END-of-Interconnect-DETAILS-------------------------


gpgpu_simulation_time = 0 days, 0 hrs, 8 min, 34 sec (514 sec)
gpgpu_simulation_rate = 135945 (inst/sec)
gpgpu_simulation_rate = 2318 (cycle/sec)
gpgpu_silicon_slowdown = 611302x
7 2 1 0 4 1 4 9 6 9 0 6 9 0 1 5 9 7 3 4 9 6 6 5 4 0 7 4
GPGPU-Sim: *** exit detected ***
